<?xml version="1.0" encoding="UTF-8"?>

<!-- generated on 01/28/23 18:48:20 by Eclipse SUMO polyconvert Version 1.6.0
<configuration xmlns:xsi="http://www.w3.org/2001/XMLSchema-instance" xsi:noNamespaceSchemaLocation="http://sumo.dlr.de/xsd/polyconvertConfiguration.xsd">

    <input>
        <net-file value="osm.net.xml"/>
        <osm-files value="osm_bbox.osm.xml"/>
        <osm.keep-full-type value="true"/>
        <type-file value="C:\Program%20Files%20(x86)\Eclipse\Sumo\data\typemap\osmPolyconvert.typ.xml"/>
    </input>

    <output>
        <output-file value="osm.poly.xml"/>
    </output>

    <processing>
        <poi-layer-offset value="5"/>
    </processing>

    <report>
        <verbose value="true"/>
    </report>

</configuration>
-->

<additional xmlns:xsi="http://www.w3.org/2001/XMLSchema-instance" xsi:noNamespaceSchemaLocation="http://sumo.dlr.de/xsd/additional_file.xsd">
    <location netOffset="-207512.94,-2466581.66" convBoundary="-11926.63,0.00,2889.74,4101.85" origBoundary="114.045394,22.280259,114.189242,22.317136" projParameter="+proj=utm +zone=50 +ellps=WGS84 +datum=WGS84 +units=m +no_defs"/>
<poly id="poly_0" type="building.yes" color="red" fill="0" layer="128.00" shape="650.000,1385.000 1550.000,1385.000"/>
<poly id="poly_1" type="building.yes" color="red" fill="0" layer="128.00" shape="650.000,1592.000 1550.000,1592.000"/>
<poly id="poly_2" type="building.yes" color="red" fill="0" layer="128.00" shape="650.000,1799.000 1550.000,1799.000"/>
<poly id="poly_3" type="building.yes" color="red" fill="0" layer="128.00" shape="650.000,2006.000 1550.000,2006.000"/>
<poly id="poly_4" type="building.yes" color="red" fill="0" layer="128.00" shape="650.000,2213.000 1550.000,2213.000"/>
<poly id="poly_5" type="building.yes" color="red" fill="0" layer="128.00" shape="650.000,2420.000 1550.000,2420.000"/>
<poly id="poly_6" type="building.yes" color="red" fill="0" layer="128.00" shape="650.000,2627.000 1550.000,2627.000"/>

<poly id="poly_7" type="building.yes" color="red" fill="0" layer="128.00" shape="650.000,1385.000 650.000,2627.000"/>
<poly id="poly_8" type="building.yes" color="red" fill="0" layer="128.00" shape="800.000,1385.000 800.000,2627.000"/>
<poly id="poly_9" type="building.yes" color="red" fill="0" layer="128.00" shape="950.000,1385.000 950.000,2627.000"/>
<poly id="poly_10" type="building.yes" color="red" fill="0" layer="128.00" shape="1100.000,1385.000 1100.000,2627.000"/>
<poly id="poly_11" type="building.yes" color="red" fill="0" layer="128.00" shape="1250.000,1385.000 1250.000,2627.000"/>
<poly id="poly_12" type="building.yes" color="red" fill="0" layer="128.00" shape="1400.000,1385.000 1400.000,2627.000"/>
<poly id="poly_13" type="building.yes" color="red" fill="0" layer="128.00" shape="1550.000,1385.000 1550.000,2627.000"/>

    <poly id="100220083" type="building.yes" color="255,230,230" fill="1" layer="-1.00" shape="1291.502405,1432.374148 1273.756060,1448.499113 1263.774954,1448.065421 1253.783329,1447.620849 1245.204284,1455.417405 1244.659102,1467.607334 1255.208062,1468.074708 1262.856468,1468.408009 1276.078747,1468.991566 1289.321851,1469.585828 1299.592027,1470.036287 1317.133832,1454.003841 1335.661524,1454.820581 1353.693931,1455.624452 1371.829430,1456.426413 1372.243236,1444.926078 1363.631728,1435.567405 1345.599301,1434.763521 1327.567076,1433.970735 1309.534639,1433.166892 1291.502405,1432.374148"/>
    <poly id="102256410" type="building.yes" color="255,230,230" fill="1" layer="-1.00" shape="2029.213946,2249.973176 2033.134682,2249.523108 2143.679857,2236.996002 2242.214087,2226.855050 2247.936855,2226.260565 2249.626610,2364.804152 2049.018224,2388.156331 2029.213946,2249.973176"/>
    <poly id="102256410#1" type="leisure.stadium" color="207,245,201" fill="1" layer="-2.00" shape="2029.213946,2249.973176 2033.134682,2249.523108 2143.679857,2236.996002 2242.214087,2226.855050 2247.936855,2226.260565 2249.626610,2364.804152 2049.018224,2388.156331 2029.213946,2249.973176"/>
    <poly id="1044263638" type="building.retail" color="255,230,230" fill="1" layer="-1.00" shape="1470.790342,1575.706009 1473.423477,1526.838199 1462.481349,1520.238323 1451.063781,1514.134983 1439.025817,1508.497647 1426.700683,1503.497399 1414.130035,1499.155625 1397.012200,1498.722459 1395.660804,1498.703427 1373.944854,1498.356366 1369.735814,1498.291096 1337.993134,1496.724329 1329.412631,1504.443287 1303.533518,1503.176852 1302.389889,1525.817735 1300.845152,1556.778038 1329.426425,1575.127465 1353.476089,1583.897812 1356.226204,1583.159201 1380.788750,1587.376145 1382.147007,1586.109471 1396.807329,1586.389131 1410.833719,1582.003843 1424.148171,1591.374234 1422.567654,1609.967061 1443.082371,1616.121735 1462.304591,1613.833575 1462.875632,1603.017422 1463.803908,1585.389911 1469.430105,1585.683577 1469.797651,1578.872026 1470.613354,1578.923254 1470.790342,1575.706009"/>
    <poly id="1044263638#1" type="shop.mall" color="237,199,255" fill="1" layer="-1.00" shape="1470.790342,1575.706009 1473.423477,1526.838199 1462.481349,1520.238323 1451.063781,1514.134983 1439.025817,1508.497647 1426.700683,1503.497399 1414.130035,1499.155625 1397.012200,1498.722459 1395.660804,1498.703427 1373.944854,1498.356366 1369.735814,1498.291096 1337.993134,1496.724329 1329.412631,1504.443287 1303.533518,1503.176852 1302.389889,1525.817735 1300.845152,1556.778038 1329.426425,1575.127465 1353.476089,1583.897812 1356.226204,1583.159201 1380.788750,1587.376145 1382.147007,1586.109471 1396.807329,1586.389131 1410.833719,1582.003843 1424.148171,1591.374234 1422.567654,1609.967061 1443.082371,1616.121735 1462.304591,1613.833575 1462.875632,1603.017422 1463.803908,1585.389911 1469.430105,1585.683577 1469.797651,1578.872026 1470.613354,1578.923254 1470.790342,1575.706009"/>
    <poly id="1044263651" type="building.yes" color="255,230,230" fill="1" layer="-1.00" shape="1533.811423,1644.989276 1527.893888,1644.556969 1526.388653,1664.422852 1532.316697,1664.866044 1532.853513,1657.729937 1534.339332,1657.768628 1534.235745,1661.050993 1538.064111,1661.167756 1543.859076,1677.095725 1548.325632,1675.493839 1539.018668,1649.901134 1535.402407,1651.198964 1535.151018,1654.849818 1533.075481,1654.711337 1533.811423,1644.989276"/>
    <poly id="1044263652" type="natural.wood" color="140,196,107" fill="1" layer="-4.00" shape="1219.779326,1538.414292 1219.472305,1541.844551 1218.761963,1545.215870 1217.667881,1548.472470 1216.241817,1551.624463 1215.731657,1553.019338 1215.800705,1554.503106 1216.434500,1555.854387 1217.546622,1556.864231 1218.670025,1557.375150 1221.867325,1557.935879 1222.857050,1557.917340 1223.757242,1557.523670 1224.584370,1556.532912 1224.787524,1555.265696 1225.255552,1537.857327 1219.796558,1537.682521 1219.779326,1538.414292"/>
    <poly id="1044263653" type="building.yes" color="255,230,230" fill="1" layer="-1.00" shape="1218.018190,1503.858646 1224.241149,1504.074555 1224.441075,1498.230307 1222.077669,1498.141587 1222.272265,1492.563420 1218.423019,1492.436037 1218.018190,1503.858646"/>
    <poly id="1044273323" type="building.commercial" color="255,230,230" fill="1" layer="-1.00" shape="1176.079465,2054.560777 1179.672782,2055.346798 1177.722552,2064.094237 1172.586299,2062.971406 1171.930389,2065.942741 1181.011717,2067.911496 1185.361219,2048.513089 1176.339667,2048.083686 1176.079465,2054.560777"/>
    <poly id="1044273324" type="landuse.construction" color="194,194,130" fill="1" layer="-3.00" shape="1211.497509,2075.109120 1222.681229,2078.102430 1224.121901,2078.485491 1226.986774,2067.914468 1227.951281,2064.349979 1229.185767,2059.783001 1216.551054,2056.406817 1211.497509,2075.109120"/>
    <poly id="1044273325" type="landuse.construction" color="194,194,130" fill="1" layer="-3.00" shape="1177.038846,2007.796559 1188.998314,2010.908306 1192.260403,1999.520806 1192.453927,1998.841144 1193.876816,1993.871661 1182.067826,1990.535438 1167.957002,1985.990028 1167.333721,2002.259825 1167.152738,2007.460937 1177.038846,2007.796559"/>
    <poly id="1044273326" type="landuse.construction" color="194,194,130" fill="1" layer="-3.00" shape="1167.264349,2009.564532 1178.592245,2010.892732 1186.607036,2013.180709 1195.845385,2015.822570 1199.474411,2016.862826 1204.275035,2018.235772 1207.095365,2019.047367 1204.214922,2028.787494 1202.420071,2035.370916 1197.392232,2033.980064 1191.878541,2033.628995 1165.807010,2031.956451 1166.127826,2027.063029 1166.823562,2016.310990 1167.264349,2009.564532"/>
    <poly id="1049512139" type="building.yes" color="255,230,230" fill="1" layer="-1.00" shape="915.431090,1620.189223 917.407395,1622.734403 917.830713,1622.759713 918.966433,1622.827076 919.140476,1620.008838 935.484908,1620.999013 935.776413,1616.194791 918.226789,1615.282628 914.995514,1615.110488 915.431090,1620.189223"/>
    <poly id="1049512153" type="man_made.bridge" color="255,230,230" fill="1" layer="-1.00" shape="873.936864,1620.524096 871.739529,1642.486657 871.977543,1645.829133 873.058244,1649.011730 874.946962,1651.835613 877.495207,1654.081914 870.863993,1650.792850 868.503270,1649.196905 864.722570,1646.674490 859.165178,1641.802645 856.330385,1638.575371 858.040742,1638.487878 859.605437,1637.782492 860.879305,1636.417606 861.496187,1634.666070 860.848279,1631.464273 860.735433,1628.197028 861.159517,1624.964041 862.269983,1621.485447 864.004222,1618.272219 864.788249,1618.833808 868.082788,1620.179505 870.782327,1620.594342 871.609798,1620.722896 873.936864,1620.524096"/>
    <poly id="1049512154" type="building.yes" color="255,230,230" fill="1" layer="-1.00" shape="918.953454,1655.133037 919.319924,1652.676915 920.422947,1650.450797 922.153272,1648.678385 924.276893,1647.530304 926.650725,1647.075734 929.058471,1647.329814 931.273320,1648.296796 939.091253,1638.973825 937.676605,1637.781268 936.999625,1637.428237 936.244115,1637.287248 935.482659,1637.379104 934.787214,1637.691374 930.168846,1641.645795 926.919970,1643.834573 925.117191,1645.043132 919.702962,1647.804480 913.977084,1649.895637 908.052545,1651.292319 903.244610,1651.737127 902.155976,1653.630499 900.573649,1655.045496 898.640926,1655.924018 896.531822,1656.196306 894.327774,1655.805420 892.348381,1654.745367 890.812221,1653.122871 889.856644,1651.112680 883.959730,1649.583052 878.287261,1647.373179 872.921920,1644.492593 867.947223,1640.995139 863.435962,1636.912700 861.496187,1634.666070 856.404018,1628.754820 851.471053,1632.981149 856.330385,1638.575371 859.165178,1641.802645 864.722570,1646.674490 868.503270,1649.196905 870.863993,1650.792850 877.495207,1654.081914 883.513421,1656.030403 885.332255,1658.977506 887.801552,1661.413693 890.273391,1662.885649 890.774277,1663.197650 894.104018,1664.221296 897.573027,1664.422219 900.995733,1663.803901 901.302528,1663.665157 904.176669,1662.392172 906.921407,1660.268256 909.077590,1657.556919 913.825872,1656.681011 918.953454,1655.133037"/>
    <poly id="1049512155" type="building.yes" color="255,230,230" fill="1" layer="-1.00" shape="901.744697,1645.448184 900.373778,1644.387801 898.792798,1643.674918 897.085272,1643.363380 895.375332,1643.473026 893.734521,1643.969267 892.255419,1644.839282 891.045871,1644.684645 885.853748,1643.341285 880.856180,1641.373652 876.146785,1638.824323 871.777525,1635.714486 867.821816,1632.109259 865.416542,1634.736614 863.435962,1636.912700 867.947223,1640.995139 872.921920,1644.492593 878.287261,1647.373179 883.959730,1649.583052 889.856644,1651.112680 890.812221,1653.122871 892.348381,1654.745367 892.817092,1654.991476 894.327774,1655.805420 896.283560,1656.156631 896.531822,1656.196306 898.640926,1655.924018 899.827282,1655.391970 900.573649,1655.045496 902.155976,1653.630499 903.244610,1651.737127 908.052545,1651.292319 913.977084,1649.895637 919.702962,1647.804480 925.117191,1645.043132 926.919970,1643.834573 930.168846,1641.645795 923.053479,1641.136433 922.111747,1639.314384 917.341412,1641.764429 912.302120,1643.621059 907.075931,1644.860572 901.744697,1645.448184"/>
    <poly id="1049512156" type="building.yes" color="255,230,230" fill="1" layer="-1.00" shape="886.355291,1610.693675 889.007072,1610.211723 891.682588,1609.895564 894.382049,1609.756278 895.031566,1598.196048 890.769946,1598.076483 886.607612,1601.601226 886.901555,1602.426907 887.265359,1605.877850 886.966775,1608.654095 886.355291,1610.693675"/>
    <poly id="1049512157" type="building.yes" color="255,230,230" fill="1" layer="-1.00" shape="897.029939,1612.366440 901.573654,1612.680202 902.748677,1596.145123 893.784953,1595.515277 890.769946,1598.076483 886.607612,1601.601226 886.901555,1602.426907 887.265359,1605.877850 886.966775,1608.654095 886.355291,1610.693675 886.160941,1611.329027 884.866815,1613.813631 888.861054,1612.874281 892.935978,1612.387804 897.029939,1612.366440"/>
    <poly id="1068265205" type="tourism.yes" color="207,245,201" fill="0" layer="-2.00" shape="2889.737587,2179.280818 2841.277272,2101.188324 2794.656246,2038.255635 2758.067712,1994.607861 2711.738422,1945.700245 2665.853972,1902.414309 2608.357609,1851.975174 2573.366732,1826.029814 2533.821882,1800.324605 2485.051818,1774.337174 2425.947609,1748.332106 2376.816660,1729.001170 2306.435188,1703.849722 2250.993185,1686.775850 2194.361375,1670.610970 2112.065156,1651.955465 2033.280274,1638.543279 1956.894593,1629.907522 1903.871254,1623.650444 1837.667290,1620.133484 1771.491781,1619.796946 1722.427085,1622.288127 1668.874771,1626.359539 1611.407581,1633.407996 1559.093897,1639.739621 1593.457467,1625.963889 1610.098378,1617.451503 1623.955822,1607.894037 1643.815683,1591.175830 1662.850200,1572.234425 1681.689531,1542.302853 1693.013804,1507.580141 1697.349984,1465.363366 1697.956660,1428.868418 1694.315138,1390.214250 1687.874128,1351.867331 1680.450869,1326.073093 1662.285524,1287.834611 1645.363054,1258.704881 1626.495022,1231.429082 1594.171390,1202.687196 1557.516831,1180.055269 1522.381207,1163.645536 1478.090981,1145.789126 1424.765048,1126.228989 1368.955425,1107.879175 1303.411940,1090.753547 1241.299944,1076.234807 1176.834770,1062.735640 1074.781528,1045.108990 970.604743,1029.207332 863.585457,1016.839568 800.913181,1007.142834 738.613848,992.042127 672.446717,974.742291 629.916026,960.612082 561.356776,932.374714 504.997658,907.942649 427.771162,873.496016 356.579830,837.506712 289.585660,800.408159 229.951812,764.224406 198.023288,742.991566 172.115972,722.199756 151.331001,705.057643 137.659853,692.159491 127.166439,679.866580 119.446584,668.075675"/>
    <poly id="1068558871" type="tourism.yes" color="207,245,201" fill="1" layer="-2.00" shape="-339.307518,2682.229777 -445.934046,2739.475488 -541.380555,2782.524813 -595.727133,2804.994756 -651.867899,2820.361468 -706.494320,2827.986233 -751.936730,2823.346611 -777.524514,2816.126954 -798.710484,2807.727068 -825.103988,2786.780070 -852.818740,2754.298728 -875.090994,2717.314827 -893.044495,2674.752368 -907.184250,2629.358313 -921.244661,2558.671899 -931.252586,2497.251752 -936.993508,2427.505475 -941.033230,2359.921472 -942.272071,2265.342403 -938.974284,2176.163675 -931.695954,2092.972098 -921.983055,2021.282825 -901.332496,1942.781837 -861.773293,1869.421161 -819.799873,1807.020259 -749.310997,1730.882141 -691.623405,1680.287685 -590.100612,1606.867975 -504.802804,1553.548496 -56.869492,1307.479942 44.590986,1259.545301 168.170295,1211.927074 237.450390,1186.331829 329.766347,1154.984487 426.050435,1126.777179 547.831353,1100.286227 652.806955,1082.889035 730.320535,1075.549843 850.491144,1072.054683 926.615261,1073.120964 1012.697939,1077.259245 1113.560281,1086.374217 1178.040551,1096.825134 1280.576519,1119.330760 1358.925370,1141.203698 1443.263983,1172.883762 1489.127508,1191.043105 1534.507186,1211.461371 1565.928358,1228.893701 1588.912396,1245.187255 1609.271681,1265.619378 1621.136116,1284.581281 1631.350803,1304.117089 1640.629292,1327.637949 1648.571892,1351.970655 1655.390752,1381.289342 1659.219001,1411.173759 1660.268967,1440.844157 1658.967818,1469.428115 1653.123860,1496.091109 1646.393719,1516.176591 1634.999248,1542.178728 1617.962725,1569.793645 1595.465204,1600.979584 1578.122354,1621.585061 1559.093897,1639.739621 1597.558402,1613.086860 1620.704238,1593.403525 1638.556179,1571.890900 1655.568067,1549.573910 1665.404403,1528.488320 1673.240759,1503.583434 1678.428056,1470.482714 1679.522275,1440.207009 1678.188432,1413.002239 1673.679636,1379.262756 1667.567476,1348.024657 1659.903219,1323.132614 1650.073884,1300.486485 1638.600187,1278.702300 1626.662305,1261.326559 1612.497427,1243.438353 1589.419797,1222.691348 1561.140610,1204.513079 1525.103308,1185.659896 1435.615067,1148.833762 1378.271940,1129.548446 1296.246867,1106.879801 1187.338420,1082.243666 1089.833406,1065.706497 835.598228,1030.253413 794.785832,1022.485219 747.858043,1013.102956 700.866371,1000.319671 654.671885,985.504526 583.377400,960.443697 524.542245,935.415258 455.381350,905.915111 398.715904,878.917980 319.666561,838.599028 251.447577,799.994231 230.500602,786.844827 205.215214,768.956023 185.805559,751.998603 172.564903,739.502396 158.402355,725.150558 142.000108,702.484515 119.446584,668.075675 142.923873,718.160169 158.038373,754.626131 170.640810,799.019064 175.949148,836.711094 177.863300,880.939172 173.071130,934.369971 164.581410,974.349456 155.895482,1004.435843 137.546109,1048.812091 102.761525,1107.151175 66.361758,1156.366475 18.230030,1207.476009 -36.374798,1255.482443 -108.615867,1305.660664 -181.463449,1349.345167 -216.763314,1369.249108 -511.385073,1530.986220 -562.557703,1561.774157 -616.936196,1598.108669 -687.382192,1648.145378 -751.672459,1701.369023 -799.155186,1747.293805 -846.050770,1804.645087 -879.245428,1855.132701 -905.144295,1898.733334 -925.445171,1951.504643 -939.276458,2010.448892 -951.562089,2090.077673 -958.645300,2180.868364 -961.604874,2251.355188 -961.882382,2328.429963 -956.827650,2433.931112 -944.525337,2539.306517 -934.715326,2600.619571 -917.839909,2660.358477 -902.387354,2700.452345 -876.642102,2748.231764 -844.838482,2788.626561 -814.140180,2816.363591 -785.407384,2829.575022 -754.541361,2837.792255 -721.294673,2841.010637 -684.842585,2837.574383 -639.082020,2829.562784 -587.879197,2815.386431 -526.914304,2792.791722 -461.859797,2762.838834 -421.923988,2741.782529 -387.124068,2717.974870 -339.307518,2682.229777"/>
    <poly id="1075024792" type="man_made.bridge" color="255,230,230" fill="1" layer="-1.00" shape="992.335389,1465.519644 989.564700,1465.161529 988.819201,1470.506221 993.392634,1470.752963 1001.858437,1471.225969 995.844239,1467.293573 992.335389,1465.519644"/>
    <poly id="1075024793" type="man_made.bridge" color="255,230,230" fill="1" layer="-1.00" shape="993.766043,1438.407025 992.335389,1465.519644 995.844239,1467.293573 1001.858437,1471.225969 1012.481875,1471.813692 1016.725738,1471.534655 1017.361015,1465.261096 1010.647393,1458.127860 1008.085229,1455.139265 993.766043,1438.407025"/>
    <poly id="1087128389" type="natural.cliff" color="140,196,107" fill="0" layer="-4.00" shape="1063.206408,2021.112391 1062.066286,2059.867350 1102.618238,2061.046634"/>
    <poly id="1087128390" type="building.yes" color="255,230,230" fill="1" layer="-1.00" shape="1103.593077,2001.913948 1103.852801,1990.460789 1091.358613,1990.185181 1091.345471,1990.584399 1091.098899,2001.638341 1098.001255,2001.797109 1103.593077,2001.913948"/>
    <poly id="1087128399" type="natural.cliff" color="140,196,107" fill="0" layer="-4.00" shape="1087.010472,2012.952701 1094.769746,2013.161900 1094.535459,2020.469703 1100.933064,2020.660098 1100.910382,2022.201000"/>
    <poly id="1087128401" type="natural.cliff" color="140,196,107" fill="0" layer="-4.00" shape="963.385183,1978.110632 1034.339335,1980.348820 1091.568056,1982.102063"/>
    <poly id="1087128402" type="natural.cliff" color="140,196,107" fill="0" layer="-4.00" shape="884.292833,1975.260716 952.776753,1977.755441"/>
    <poly id="1093756725" type="building.yes" color="255,230,230" fill="1" layer="-1.00" shape="1598.107703,2567.769370 1598.209524,2561.638826 1595.785263,2561.595539 1595.763992,2563.213987 1593.298496,2563.171473 1593.452336,2553.759526 1593.019153,2553.756551 1592.904861,2560.873674 1584.951480,2560.745475 1585.186633,2546.311620 1612.626283,2546.751147 1612.490652,2554.932590 1606.889161,2554.837941 1606.669721,2567.908348 1598.107703,2567.769370"/>
    <poly id="1095627783" type="building.yes" color="255,230,230" fill="1" layer="-1.00" shape="1170.935860,2445.938171 1189.264328,2447.190540 1190.036469,2436.115669 1171.697472,2434.852412 1170.935860,2445.938171"/>
    <poly id="1096170337" type="building.roof" color="255,230,230" fill="1" layer="-1.00" shape="1552.486115,1681.234311 1538.223482,1642.679127 1530.582100,1645.470843 1544.844958,1684.037100 1552.486115,1681.234311"/>
    <poly id="1096170338" type="natural.water" color="181,209,209" fill="1" layer="-4.00" shape="1536.490216,1640.439645 1542.957021,1642.668129 1540.334876,1636.466654 1536.490216,1640.439645"/>
    <poly id="1096170339" type="natural.water" color="181,209,209" fill="1" layer="-4.00" shape="1558.703302,1684.453814 1555.105823,1673.527269 1551.777476,1677.534926 1558.703302,1684.453814"/>
    <poly id="1099833845" type="natural.wood" color="140,196,107" fill="1" layer="-4.00" shape="1257.406698,1550.221687 1255.548494,1546.820902 1254.649185,1528.540462 1238.071325,1529.405100 1224.207370,1535.305810 1221.031997,1535.365291 1222.369944,1510.991868 1232.419355,1515.624536 1256.414967,1519.297793 1266.422926,1522.268875 1267.028424,1532.021257 1264.631236,1544.445358 1257.406698,1550.221687"/>
    <poly id="1099833846" type="natural.wood" color="140,196,107" fill="1" layer="-4.00" shape="1283.368875,1548.217130 1277.941037,1546.401505 1276.649922,1536.384900 1278.454297,1522.043543 1287.184008,1522.844233 1289.323062,1533.532075 1283.368875,1548.217130"/>
    <poly id="1099833848" type="natural.wood" color="140,196,107" fill="1" layer="-4.00" shape="1355.820190,1690.911240 1353.121724,1690.551715 1356.098769,1683.757786 1355.289540,1680.747406 1363.791037,1680.931779 1361.936586,1684.889720 1355.820190,1690.911240"/>
    <poly id="1099833849" type="natural.wood" color="140,196,107" fill="1" layer="-4.00" shape="1370.025305,1699.932426 1351.002870,1702.970587 1342.002585,1702.584995 1333.827205,1701.640916 1332.274393,1696.372540 1340.015583,1692.304358 1354.197694,1692.936478 1360.773975,1689.444248 1370.236826,1688.646442 1377.477959,1691.469899 1375.198139,1699.148453 1370.025305,1699.932426"/>
    <poly id="1099833850" type="natural.wood" color="140,196,107" fill="1" layer="-4.00" shape="1415.941323,1699.482817 1408.207784,1700.104148 1406.360000,1697.257282 1410.588252,1690.639428 1413.812734,1689.348901 1418.767517,1695.096638 1415.941323,1699.482817"/>
    <poly id="1099833851" type="natural.wood" color="140,196,107" fill="1" layer="-4.00" shape="1396.442060,1699.637307 1391.530989,1699.529769 1387.967900,1694.853154 1395.385673,1687.832020 1404.615175,1689.443514 1398.689561,1697.943931 1396.442060,1699.637307"/>
    <poly id="1099833852" type="natural.wood" color="140,196,107" fill="1" layer="-4.00" shape="1360.269293,1666.346605 1355.742173,1664.713579 1363.243796,1658.865609 1377.887397,1657.704826 1396.140115,1665.331431 1404.308989,1676.394021 1400.995550,1680.645252 1389.406723,1670.899020 1384.000561,1666.932947 1374.692591,1664.436330 1360.269293,1666.346605"/>
    <poly id="1099833853" type="natural.wood" color="140,196,107" fill="1" layer="-4.00" shape="1299.651133,1697.327048 1294.647310,1692.267380 1295.472034,1688.395208 1303.835736,1684.525917 1308.597474,1687.672842 1304.709267,1694.273279 1299.651133,1697.327048"/>
    <poly id="1099833854" type="natural.wood" color="140,196,107" fill="1" layer="-4.00" shape="1325.016478,1696.508456 1322.885132,1693.389845 1323.766709,1685.393906 1320.596761,1678.582093 1325.830153,1670.017026 1335.328049,1667.234769 1338.379561,1671.577396 1342.152876,1669.855440 1346.913558,1661.930939 1352.515185,1673.030495 1348.137222,1679.363025 1337.769579,1683.613375 1329.579902,1692.920915 1325.016478,1696.508456"/>
    <poly id="1099833855" type="natural.wood" color="140,196,107" fill="1" layer="-4.00" shape="1342.011430,1658.997199 1332.508456,1657.102714 1327.545952,1650.945090 1331.455964,1645.507920 1354.076248,1652.853209 1358.416534,1656.074536 1351.047628,1661.299401 1347.395448,1658.475246 1347.873749,1654.277089 1342.011430,1658.997199"/>
    <poly id="1099833856" type="natural.wood" color="140,196,107" fill="1" layer="-4.00" shape="1299.663569,1657.241253 1295.489518,1656.288750 1292.336321,1646.517587 1283.945585,1645.089932 1287.485762,1638.629000 1288.770725,1629.594825 1294.398500,1631.074230 1296.572527,1628.761593 1311.351429,1627.664711 1317.814166,1633.528257 1317.728928,1639.990975 1313.601109,1644.811604 1318.619047,1650.624628 1319.379258,1657.625641 1312.435987,1652.535791 1309.719319,1651.755476 1304.464071,1651.443840 1299.663569,1657.241253"/>
    <poly id="1099833857" type="leisure.playground" color="207,245,201" fill="1" layer="-2.00" shape="1352.704194,1686.979873 1347.790447,1690.585049 1340.665246,1690.097850 1339.163885,1687.576980 1341.754268,1682.164523 1349.963446,1681.057705 1354.101207,1683.928181 1352.704194,1686.979873"/>
    <poly id="1099833858" type="leisure.playground" color="207,245,201" fill="1" layer="-2.00" shape="1370.236826,1688.646442 1368.816992,1679.463438 1363.811737,1674.326198 1359.785787,1677.427114 1356.950661,1677.480201 1359.572082,1669.318698 1366.217907,1666.235223 1371.078810,1667.518443 1396.595972,1678.112142 1398.784183,1680.963716 1394.263263,1686.822358 1380.655976,1687.697746 1370.236826,1688.646442"/>
    <poly id="111298956" type="building.transportation" color="255,230,230" fill="0" layer="-1.00" shape="741.244407,1413.186585 739.557013,1411.201213 737.302374,1409.215400 735.735205,1408.690674 734.042532,1408.622689 732.485756,1408.651898 730.865126,1409.125609 729.570751,1409.947841 728.718865,1410.717441 727.347584,1412.937524 726.841741,1414.010944 726.734321,1415.431531 726.765917,1417.115493 727.207825,1418.680929 728.386508,1420.487442 729.516468,1421.895895"/>
    <poly id="1117587203" type="building.transportation" color="255,230,230" fill="0" layer="-1.00" shape="783.553167,1459.538180 775.219541,1455.117409 741.244407,1413.186585"/>
    <poly id="1117587204" type="man_made.pier" color="255,230,230" fill="0" layer="-1.00" shape="766.284217,1474.147608 763.314680,1477.483766 757.648153,1483.840659 747.983083,1496.955379 732.858551,1516.467457"/>
    <poly id="1117587205" type="man_made.pier" color="255,230,230" fill="0" layer="-1.00" shape="784.139285,1458.895477 783.856432,1459.211096 783.553167,1459.538180"/>
    <poly id="1117587206" type="man_made.pier" color="255,230,230" fill="0" layer="-1.00" shape="720.075767,1534.361885 719.744902,1534.866810 719.423931,1535.349385"/>
    <poly id="1117587207" type="building.roof" color="255,230,230" fill="0" layer="-1.00" shape="762.059666,1497.444894 754.529875,1507.283432"/>
    <poly id="1117587208" type="building.roof" color="255,230,230" fill="0" layer="-1.00" shape="744.157945,1520.101107 727.833279,1538.859930 725.780325,1541.026310"/>
    <poly id="1117587209" type="building.roof" color="255,230,230" fill="0" layer="-1.00" shape="754.529875,1507.283432 744.157945,1520.101107"/>
    <poly id="1117587210" type="building.roof" color="255,230,230" fill="0" layer="-1.00" shape="771.956548,1484.591817 762.059666,1497.444894"/>
    <poly id="1117587211" type="building.roof" color="255,230,230" fill="0" layer="-1.00" shape="791.368674,1467.127213 771.956548,1484.591817"/>
    <poly id="1117587212" type="amenity.toilets" color="237,199,199" fill="0" layer="-1.00" shape="789.289938,1465.171343 791.368674,1467.127213"/>
    <poly id="1117587212#1" type="building.toilets" color="255,230,230" fill="0" layer="-1.00" shape="789.289938,1465.171343 791.368674,1467.127213"/>
    <poly id="1117587213" type="amenity.toilets" color="237,199,199" fill="0" layer="-1.00" shape="794.549869,1460.229580 789.289938,1465.171343"/>
    <poly id="1117587213#1" type="building.toilets" color="255,230,230" fill="0" layer="-1.00" shape="794.549869,1460.229580 789.289938,1465.171343"/>
    <poly id="1117587214" type="amenity.toilets" color="237,199,199" fill="0" layer="-1.00" shape="794.549869,1460.229580 795.266518,1461.047331 796.014304,1461.875580"/>
    <poly id="1117587214#1" type="building.toilets" color="255,230,230" fill="0" layer="-1.00" shape="794.549869,1460.229580 795.266518,1461.047331 796.014304,1461.875580"/>
    <poly id="1117587214#2" type="natural.coastline" color="140,196,107" fill="0" layer="-4.00" shape="794.549869,1460.229580 795.266518,1461.047331 796.014304,1461.875580"/>
    <poly id="1117587215" type="building.transportation" color="255,230,230" fill="0" layer="-1.00" shape="784.139285,1458.895477 785.234819,1459.018999 794.549869,1460.229580"/>
    <poly id="1117587215#1" type="natural.coastline" color="140,196,107" fill="0" layer="-4.00" shape="784.139285,1458.895477 785.234819,1459.018999 794.549869,1460.229580"/>
    <poly id="1117587216" type="building.transportation" color="255,230,230" fill="0" layer="-1.00" shape="691.090516,1470.903797 688.088208,1467.546697 686.425797,1465.793595 685.208539,1465.229061 683.986168,1464.941687 682.777434,1464.831379 681.674292,1464.852081 680.533861,1465.084052 679.405611,1465.415537 678.198001,1465.914752 677.114818,1466.999009 675.766163,1468.775369 675.239168,1470.370071 675.033023,1472.025247 674.952588,1473.234759 675.423559,1474.699906 676.290249,1476.368197 678.718039,1479.337102"/>
    <poly id="1117587217" type="building.transportation" color="255,230,230" fill="0" layer="-1.00" shape="678.718039,1479.337102 690.076383,1493.254262 711.875903,1520.030798 717.577157,1532.014929 720.075767,1534.361885"/>