<?xml version="1.0" encoding="UTF-8"?>

<!-- generated on 01/28/23 18:48:19 by Eclipse SUMO netconvert Version 1.6.0
<configuration xmlns:xsi="http://www.w3.org/2001/XMLSchema-instance" xsi:noNamespaceSchemaLocation="http://sumo.dlr.de/xsd/netconvertConfiguration.xsd">

    <input>
        <type-files value="C:\Program%20Files%20(x86)\Eclipse\Sumo\data\typemap\osmNetconvert.typ.xml"/>
        <osm-files value="osm_bbox.osm.xml"/>
    </input>

    <output>
        <output-file value="osm.net.xml"/>
        <output.street-names value="true"/>
        <output.original-names value="true"/>
    </output>

    <projection>
        <proj.utm value="true"/>
    </projection>

    <processing>
        <geometry.remove value="true"/>
        <roundabouts.guess value="true"/>
    </processing>

    <tls_building>
        <tls.discard-simple value="true"/>
        <tls.join value="true"/>
        <tls.guess-signals value="true"/>
        <tls.default-type value="actuated"/>
    </tls_building>

    <ramp_guessing>
        <ramps.guess value="true"/>
    </ramp_guessing>

    <junctions>
        <junctions.join value="true"/>
        <junctions.corner-detail value="5"/>
    </junctions>

    <report>
        <verbose value="true"/>
        <aggregate-warnings value="5"/>
    </report>

</configuration>
-->

<net version="1.6" junctionCornerDetail="5" limitTurnSpeed="5.50" xmlns:xsi="http://www.w3.org/2001/XMLSchema-instance" xsi:noNamespaceSchemaLocation="http://sumo.dlr.de/xsd/net_file.xsd">

    <location netOffset="-207512.94,-2466581.66" convBoundary="0.00,0.00,2366.06,4101.85" origBoundary="114.160870,22.280259,114.189242,22.317136" projParameter="+proj=utm +zone=50 +ellps=WGS84 +datum=WGS84 +units=m +no_defs"/>

    <type id="highway.bridleway" priority="1" numLanes="1" speed="2.78" allow="pedestrian" oneway="1" width="2.00"/>
    <type id="highway.bus_guideway" priority="1" numLanes="1" speed="27.78" allow="bus" oneway="1"/>
    <type id="highway.cycleway" priority="1" numLanes="1" speed="8.33" allow="bicycle" oneway="0" width="1.00"/>
    <type id="highway.footway" priority="1" numLanes="1" speed="2.78" allow="pedestrian" oneway="1" width="2.00"/>
    <type id="highway.ford" priority="1" numLanes="1" speed="2.78" allow="army" oneway="0"/>
    <type id="highway.living_street" priority="2" numLanes="1" speed="2.78" disallow="tram rail_urban rail rail_electric rail_fast ship" oneway="0"/>
    <type id="highway.motorway" priority="14" numLanes="2" speed="39.44" allow="private emergency authority army vip passenger hov taxi bus coach delivery truck trailer motorcycle evehicle custom1 custom2" oneway="1"/>
    <type id="highway.motorway_link" priority="9" numLanes="1" speed="22.22" allow="private emergency authority army vip passenger hov taxi bus coach delivery truck trailer motorcycle evehicle custom1 custom2" oneway="1"/>
    <type id="highway.path" priority="1" numLanes="1" speed="2.78" allow="pedestrian bicycle" oneway="1" width="2.00"/>
    <type id="highway.pedestrian" priority="1" numLanes="1" speed="2.78" allow="pedestrian" oneway="1" width="2.00"/>
    <type id="highway.primary" priority="12" numLanes="2" speed="27.78" disallow="tram rail_urban rail rail_electric rail_fast ship" oneway="0"/>
    <type id="highway.primary_link" priority="7" numLanes="1" speed="22.22" disallow="tram rail_urban rail rail_electric rail_fast ship" oneway="0"/>
    <type id="highway.raceway" priority="15" numLanes="2" speed="83.33" allow="vip" oneway="0"/>
    <type id="highway.residential" priority="3" numLanes="1" speed="13.89" disallow="tram rail_urban rail rail_electric rail_fast ship" oneway="0"/>
    <type id="highway.secondary" priority="11" numLanes="1" speed="27.78" disallow="tram rail_urban rail rail_electric rail_fast ship" oneway="0"/>
    <type id="highway.secondary_link" priority="6" numLanes="1" speed="22.22" disallow="tram rail_urban rail rail_electric rail_fast ship" oneway="0"/>
    <type id="highway.service" priority="1" numLanes="1" speed="5.56" allow="pedestrian delivery bicycle" oneway="0"/>
    <type id="highway.stairs" priority="1" numLanes="1" speed="1.39" allow="pedestrian" oneway="1" width="2.00"/>
    <type id="highway.step" priority="1" numLanes="1" speed="1.39" allow="pedestrian" oneway="1" width="2.00"/>
    <type id="highway.steps" priority="1" numLanes="1" speed="1.39" allow="pedestrian" oneway="1" width="2.00"/>
    <type id="highway.tertiary" priority="10" numLanes="1" speed="22.22" disallow="tram rail_urban rail rail_electric rail_fast ship" oneway="0"/>
    <type id="highway.tertiary_link" priority="5" numLanes="1" speed="22.22" disallow="tram rail_urban rail rail_electric rail_fast ship" oneway="0"/>
    <type id="highway.track" priority="1" numLanes="1" speed="5.56" disallow="tram rail_urban rail rail_electric rail_fast ship" oneway="0"/>
    <type id="highway.trunk" priority="13" numLanes="2" speed="27.78" disallow="pedestrian bicycle tram rail_urban rail rail_electric rail_fast ship" oneway="0"/>
    <type id="highway.trunk_link" priority="8" numLanes="1" speed="22.22" disallow="pedestrian bicycle tram rail_urban rail rail_electric rail_fast ship" oneway="0"/>
    <type id="highway.unclassified" priority="4" numLanes="1" speed="13.89" disallow="tram rail_urban rail rail_electric rail_fast ship" oneway="0"/>
    <type id="highway.unsurfaced" priority="1" numLanes="1" speed="8.33" disallow="tram rail_urban rail rail_electric rail_fast ship" oneway="0"/>
    <type id="railway.highspeed" priority="21" numLanes="1" speed="69.44" allow="rail_fast" oneway="1"/>
    <type id="railway.light_rail" priority="19" numLanes="1" speed="27.78" allow="rail_urban" oneway="1"/>
    <type id="railway.preserved" priority="16" numLanes="1" speed="27.78" allow="rail" oneway="1"/>
    <type id="railway.rail" priority="20" numLanes="1" speed="44.44" allow="rail" oneway="1"/>
    <type id="railway.subway" priority="18" numLanes="1" speed="27.78" allow="rail_urban" oneway="1"/>
    <type id="railway.tram" priority="17" numLanes="1" speed="13.89" allow="tram" oneway="1"/>

    <edge id=":10029279655_0" function="internal">
        <lane id=":10029279655_0_0" index="0" allow="pedestrian delivery bicycle" speed="3.65" length="4.67" shape="2010.55,2387.89 2010.73,2386.46 2011.26,2385.74 2012.15,2385.74 2013.41,2386.45"/>
    </edge>
    <edge id=":10033752305_0" function="internal">
        <lane id=":10033752305_0_0" index="0" allow="pedestrian delivery bicycle" speed="5.56" length="6.09" shape="1153.32,2427.24 1151.62,2427.28 1150.15,2427.65 1148.91,2428.35 1147.89,2429.39"/>
    </edge>
    <edge id=":10033752305_1" function="internal">
        <lane id=":10033752305_1_0" index="0" allow="pedestrian delivery bicycle" speed="5.56" length="11.30" shape="1153.32,2427.24 1150.19,2426.57 1148.26,2425.06 1147.52,2422.72 1147.98,2419.56"/>
    </edge>
    <edge id=":10033752305_2" function="internal">
        <lane id=":10033752305_2_0" index="0" allow="pedestrian delivery bicycle" speed="3.65" length="4.67" shape="1153.32,2427.24 1152.18,2426.36 1151.84,2425.53 1152.29,2424.76 1153.54,2424.05"/>
    </edge>
    <edge id=":10033752305_3" function="internal">
        <lane id=":10033752305_3_0" index="0" allow="pedestrian delivery bicycle" speed="4.84" length="5.28" shape="1151.05,2420.46 1150.83,2421.94 1151.18,2423.03 1152.08,2423.73 1153.54,2424.05"/>
    </edge>
    <edge id=":10033752305_4" function="internal">
        <lane id=":10033752305_4_0" index="0" allow="pedestrian delivery bicycle" speed="5.56" length="9.59" shape="1151.05,2420.46 1150.39,2423.24 1150.04,2425.21 1149.40,2427.04 1147.89,2429.39"/>
    </edge>
    <edge id=":10033752305_5" function="internal">
        <lane id=":10033752305_5_0" index="0" allow="pedestrian delivery bicycle" speed="3.65" length="4.67" shape="1151.05,2420.46 1149.94,2421.38 1149.06,2421.54 1148.41,2420.93 1147.98,2419.56"/>
    </edge>
    <edge id=":10033752305_6" function="internal">
        <lane id=":10033752305_6_0" index="0" allow="pedestrian delivery bicycle" speed="5.56" length="9.56" shape="1144.63,2428.39 1146.17,2426.06 1146.87,2424.26 1147.29,2422.32 1147.98,2419.56"/>
    </edge>
    <edge id=":10033752305_7" function="internal">
        <lane id=":10033752305_7_0" index="0" allow="pedestrian delivery bicycle" speed="5.56" length="10.35" shape="1144.63,2428.39 1146.52,2426.35 1148.64,2424.95 1150.98,2424.18 1153.54,2424.05"/>
    </edge>
    <edge id=":10033752305_8" function="internal">
        <lane id=":10033752305_8_0" index="0" allow="pedestrian delivery bicycle" speed="3.73" length="4.97" shape="1144.63,2428.39 1145.82,2427.42 1146.76,2427.26 1147.45,2427.92 1147.89,2429.39"/>
    </edge>
    <edge id=":10033752307_0" function="internal">
        <lane id=":10033752307_0_0" index="0" allow="pedestrian delivery bicycle" speed="5.56" length="9.91" shape="1148.56,2409.56 1148.39,2406.68 1147.80,2404.77 1146.91,2402.90 1145.84,2400.15"/>
    </edge>
    <edge id=":10033752307_1" function="internal">
        <lane id=":10033752307_1_0" index="0" allow="pedestrian delivery bicycle" speed="5.56" length="11.14" shape="1148.56,2409.56 1149.02,2406.11 1150.19,2403.69 1152.08,2402.31 1154.69,2401.97"/>
    </edge>
    <edge id=":10033752307_2" function="internal">
        <lane id=":10033752307_2_0" index="0" allow="pedestrian delivery bicycle" speed="3.72" length="4.92" shape="1148.56,2409.56 1149.00,2408.11 1149.68,2407.46 1150.61,2407.62 1151.79,2408.58"/>
    </edge>
    <edge id=":10033752307_3" function="internal">
        <lane id=":10033752307_3_0" index="0" allow="pedestrian delivery bicycle" speed="4.98" length="4.98" shape="1154.50,2405.16 1153.35,2405.32 1152.51,2405.94 1151.99,2407.03 1151.79,2408.58"/>
    </edge>
    <edge id=":10033752307_4" function="internal">
        <lane id=":10033752307_4_0" index="0" allow="pedestrian delivery bicycle" speed="5.56" length="10.66" shape="1154.50,2405.16 1151.26,2404.69 1148.73,2403.70 1146.93,2402.19 1145.84,2400.15"/>
    </edge>
    <edge id=":10033752307_5" function="internal">
        <lane id=":10033752307_5_0" index="0" allow="pedestrian delivery bicycle" speed="3.65" length="4.67" shape="1154.50,2405.16 1153.35,2404.29 1153.00,2403.47 1153.44,2402.70 1154.69,2401.97"/>
    </edge>
    <edge id=":10033752307_6" function="internal">
        <lane id=":10033752307_6_0" index="0" allow="pedestrian delivery bicycle" speed="5.56" length="6.79" shape="1148.90,2399.19 1149.55,2400.30 1150.74,2401.13 1152.45,2401.68 1154.69,2401.97"/>
    </edge>
    <edge id=":10033752307_7" function="internal">
        <lane id=":10033752307_7_0" index="0" allow="pedestrian delivery bicycle" speed="5.56" length="9.94" shape="1148.90,2399.19 1149.99,2401.94 1150.94,2403.80 1151.59,2405.70 1151.79,2408.58"/>
    </edge>
    <edge id=":10033752307_8" function="internal">
        <lane id=":10033752307_8_0" index="0" allow="pedestrian delivery bicycle" speed="3.65" length="4.67" shape="1148.90,2399.19 1148.49,2400.58 1147.85,2401.20 1146.97,2401.05 1145.84,2400.15"/>
    </edge>
    <edge id=":10125880852_0" function="internal">
        <lane id=":10125880852_0_0" index="0" disallow="tram rail_urban rail rail_electric rail_fast ship" speed="13.89" length="5.00" shape="1263.56,1682.78 1263.26,1687.77"/>
    </edge>
    <edge id=":10242392297_0" function="internal">
        <lane id=":10242392297_0_0" index="0" disallow="tram rail_urban rail rail_electric rail_fast ship" speed="13.89" length="6.80" shape="1619.31,1782.41 1624.22,1786.90"/>
        <lane id=":10242392297_0_1" index="1" disallow="tram rail_urban rail rail_electric rail_fast ship" speed="13.89" length="6.80" shape="1617.11,1784.73 1622.09,1789.29"/>
        <lane id=":10242392297_0_2" index="2" disallow="tram rail_urban rail rail_electric rail_fast ship" speed="13.89" length="6.80" shape="1614.91,1787.06 1619.97,1791.69"/>
        <lane id=":10242392297_0_3" index="3" disallow="tram rail_urban rail rail_electric rail_fast ship" speed="13.89" length="6.80" shape="1612.72,1789.39 1617.84,1794.08"/>
    </edge>
    <edge id=":10242398442_0" function="internal">
        <lane id=":10242398442_0_0" index="0" disallow="tram rail_urban rail rail_electric rail_fast ship" speed="13.89" length="5.18" shape="1167.45,1600.04 1171.59,1600.30"/>
        <lane id=":10242398442_0_1" index="1" disallow="tram rail_urban rail rail_electric rail_fast ship" speed="13.89" length="5.18" shape="1166.47,1603.19 1171.39,1603.50"/>
        <lane id=":10242398442_0_2" index="2" disallow="tram rail_urban rail rail_electric rail_fast ship" speed="13.89" length="5.18" shape="1165.44,1606.33 1171.19,1606.69"/>
        <lane id=":10242398442_0_3" index="3" disallow="tram rail_urban rail rail_electric rail_fast ship" speed="13.89" length="5.18" shape="1165.12,1609.51 1170.99,1609.89"/>
    </edge>
    <edge id=":10242398452_0" function="internal">
        <lane id=":10242398452_0_0" index="0" disallow="tram rail_urban rail rail_electric rail_fast ship" speed="27.78" length="4.91" shape="1225.37,1593.31 1224.06,1593.52 1223.23,1594.08 1222.41,1594.66 1221.10,1594.94"/>
        <lane id=":10242398452_0_1" index="1" disallow="tram rail_urban rail rail_electric rail_fast ship" speed="27.78" length="4.91" shape="1225.50,1590.11 1224.14,1590.32 1223.28,1590.88 1222.41,1591.46 1221.05,1591.74"/>
        <lane id=":10242398452_0_2" index="2" disallow="tram rail_urban rail rail_electric rail_fast ship" speed="27.78" length="4.91" shape="1225.63,1586.92 1224.22,1587.12 1223.32,1587.68 1222.42,1588.26 1221.01,1588.54"/>
        <lane id=":10242398452_0_3" index="3" disallow="tram rail_urban rail rail_electric rail_fast ship" speed="27.78" length="4.91" shape="1225.76,1583.72 1224.30,1583.92 1223.37,1584.48 1222.43,1585.06 1220.97,1585.34"/>
    </edge>
    <edge id=":10242418430_0" function="internal">
        <lane id=":10242418430_0_0" index="0" disallow="tram rail_urban rail rail_electric rail_fast ship" speed="22.22" length="5.00" shape="1638.45,1922.60 1634.61,1919.41"/>
    </edge>
    <edge id=":10242418430_1" function="internal">
        <lane id=":10242418430_1_0" index="0" disallow="tram rail_urban rail rail_electric rail_fast ship" speed="3.65" length="2.34" shape="1638.45,1922.60 1638.04,1921.22 1638.24,1920.35"/>
    </edge>
    <edge id=":10242418430_4" function="internal">
        <lane id=":10242418430_4_0" index="0" disallow="tram rail_urban rail rail_electric rail_fast ship" speed="3.65" length="2.34" shape="1638.24,1920.35 1639.06,1919.99 1640.50,1920.14"/>
    </edge>
    <edge id=":10242418430_2" function="internal">
        <lane id=":10242418430_2_0" index="0" disallow="tram rail_urban rail rail_electric rail_fast ship" speed="22.22" length="5.00" shape="1636.66,1916.95 1640.50,1920.14"/>
    </edge>
    <edge id=":10242418430_3" function="internal">
        <lane id=":10242418430_3_0" index="0" disallow="tram rail_urban rail rail_electric rail_fast ship" speed="3.65" length="2.34" shape="1636.66,1916.95 1637.07,1918.33 1636.86,1919.20"/>
    </edge>
    <edge id=":10242418430_5" function="internal">
        <lane id=":10242418430_5_0" index="0" disallow="tram rail_urban rail rail_electric rail_fast ship" speed="3.65" length="2.34" shape="1636.86,1919.20 1636.04,1919.56 1634.61,1919.41"/>
    </edge>
    <edge id=":10242418432_0" function="internal">
        <lane id=":10242418432_0_0" index="0" disallow="tram rail_urban rail rail_electric rail_fast ship" speed="22.22" length="5.02" shape="1612.67,1901.14 1608.80,1897.95"/>
    </edge>
    <edge id=":10242418432_1" function="internal">
        <lane id=":10242418432_1_0" index="0" disallow="tram rail_urban rail rail_electric rail_fast ship" speed="3.65" length="2.34" shape="1612.67,1901.14 1612.26,1899.76 1612.47,1898.89"/>
    </edge>
    <edge id=":10242418432_4" function="internal">
        <lane id=":10242418432_4_0" index="0" disallow="tram rail_urban rail rail_electric rail_fast ship" speed="3.65" length="2.34" shape="1612.47,1898.89 1613.29,1898.53 1614.72,1898.68"/>
    </edge>
    <edge id=":10242418432_2" function="internal">
        <lane id=":10242418432_2_0" index="0" disallow="tram rail_urban rail rail_electric rail_fast ship" speed="22.22" length="5.05" shape="1610.83,1895.47 1614.72,1898.68"/>
    </edge>
    <edge id=":10242418432_3" function="internal">
        <lane id=":10242418432_3_0" index="0" disallow="tram rail_urban rail rail_electric rail_fast ship" speed="3.65" length="2.34" shape="1610.83,1895.47 1611.25,1896.85 1611.05,1897.72"/>
    </edge>
    <edge id=":10242418432_5" function="internal">
        <lane id=":10242418432_5_0" index="0" disallow="tram rail_urban rail rail_electric rail_fast ship" speed="3.65" length="2.34" shape="1611.05,1897.72 1610.24,1898.09 1608.80,1897.95"/>
    </edge>
    <edge id=":10243968776_0" function="internal">
        <lane id=":10243968776_0_0" index="0" disallow="tram rail_urban rail rail_electric rail_fast ship" speed="19.44" length="8.21" shape="1885.99,2003.01 1884.09,2001.53 1882.55,2000.83 1881.01,2000.12 1879.10,1998.65"/>
        <lane id=":10243968776_0_1" index="1" disallow="tram rail_urban rail rail_electric rail_fast ship" speed="19.44" length="8.21" shape="1888.20,2000.69 1886.29,1999.22 1884.75,1998.51 1883.21,1997.80 1881.30,1996.33"/>
        <lane id=":10243968776_0_2" index="2" disallow="tram rail_urban rail rail_electric rail_fast ship" speed="19.44" length="8.21" shape="1888.20,2000.69 1886.64,1998.86 1885.86,1997.35 1885.07,1995.85 1883.51,1994.01"/>
    </edge>
    <edge id=":10243968786_0" function="internal">
        <lane id=":10243968786_0_0" index="0" disallow="tram rail_urban rail rail_electric rail_fast ship" speed="13.89" length="7.99" shape="1721.66,1874.80 1723.40,1876.15 1724.83,1876.75 1726.30,1877.32 1728.14,1878.56"/>
        <lane id=":10243968786_0_1" index="1" disallow="tram rail_urban rail rail_electric rail_fast ship" speed="13.89" length="7.99" shape="1719.41,1877.08 1721.20,1878.48 1722.67,1879.12 1724.18,1879.71 1726.07,1881.00"/>
        <lane id=":10243968786_0_2" index="2" disallow="tram rail_urban rail rail_electric rail_fast ship" speed="13.89" length="7.99" shape="1717.17,1879.36 1719.01,1880.81 1720.51,1881.48 1722.05,1882.10 1724.00,1883.44"/>
        <lane id=":10243968786_0_3" index="3" disallow="tram rail_urban rail rail_electric rail_fast ship" speed="13.89" length="7.99" shape="1714.93,1881.64 1716.81,1883.14 1718.35,1883.84 1719.93,1884.50 1721.92,1885.87"/>
        <lane id=":10243968786_0_4" index="4" disallow="tram rail_urban rail rail_electric rail_fast ship" speed="13.89" length="7.99" shape="1714.93,1881.64 1716.50,1883.53 1717.31,1885.06 1718.16,1886.55 1719.85,1888.31"/>
    </edge>
    <edge id=":10243968789_0" function="internal">
        <lane id=":10243968789_0_0" index="0" disallow="tram rail_urban rail rail_electric rail_fast ship" speed="13.89" length="8.19" shape="1797.62,1941.45 1799.63,1942.82 1801.21,1943.44 1802.79,1944.08 1804.77,1945.46"/>
        <lane id=":10243968789_0_1" index="1" disallow="tram rail_urban rail rail_electric rail_fast ship" speed="13.89" length="8.19" shape="1795.56,1943.90 1797.55,1945.25 1799.13,1945.87 1800.70,1946.50 1802.68,1947.88"/>
        <lane id=":10243968789_0_2" index="2" disallow="tram rail_urban rail rail_electric rail_fast ship" speed="13.89" length="8.19" shape="1793.49,1946.34 1795.48,1947.69 1797.05,1948.31 1798.62,1948.93 1800.58,1950.30"/>
        <lane id=":10243968789_0_3" index="3" disallow="tram rail_urban rail rail_electric rail_fast ship" speed="13.89" length="8.19" shape="1791.43,1948.78 1793.40,1950.13 1794.97,1950.74 1796.53,1951.35 1798.49,1952.72"/>
    </edge>
    <edge id=":10243968793_0" function="internal">
        <lane id=":10243968793_0_0" index="0" disallow="tram rail_urban rail rail_electric rail_fast ship" speed="13.89" length="3.83" shape="1786.72,1929.67 1787.65,1930.18 1788.43,1930.28 1789.21,1930.39 1790.12,1930.93"/>
        <lane id=":10243968793_0_1" index="1" disallow="tram rail_urban rail rail_electric rail_fast ship" speed="13.89" length="3.83" shape="1784.58,1932.06 1785.53,1932.58 1786.33,1932.70 1787.12,1932.82 1788.06,1933.37"/>
        <lane id=":10243968793_0_2" index="2" disallow="tram rail_urban rail rail_electric rail_fast ship" speed="13.89" length="3.83" shape="1782.44,1934.44 1783.42,1934.99 1784.23,1935.11 1785.03,1935.25 1785.99,1935.81"/>
        <lane id=":10243968793_0_3" index="3" disallow="tram rail_urban rail rail_electric rail_fast ship" speed="13.89" length="3.83" shape="1780.29,1936.83 1781.30,1937.39 1782.12,1937.53 1782.95,1937.67 1783.93,1938.26"/>
    </edge>
    <edge id=":10243968793_4" function="internal">
        <lane id=":10243968793_4_0" index="0" disallow="tram rail_urban rail rail_electric rail_fast ship" speed="6.88" length="4.78" shape="1777.39,1939.52 1778.62,1939.43 1779.78,1939.60 1780.86,1940.02 1781.86,1940.70"/>
    </edge>
    <edge id=":10243968795_0" function="internal">
        <lane id=":10243968795_0_0" index="0" disallow="tram rail_urban rail rail_electric rail_fast ship" speed="13.89" length="8.10" shape="1380.72,1640.55 1383.11,1640.93 1384.81,1640.84 1386.49,1640.79 1388.85,1641.27"/>
        <lane id=":10243968795_0_1" index="1" disallow="tram rail_urban rail rail_electric rail_fast ship" speed="13.89" length="8.10" shape="1379.89,1643.64 1382.23,1644.01 1383.90,1643.91 1385.56,1643.85 1387.88,1644.32"/>
        <lane id=":10243968795_0_2" index="2" disallow="tram rail_urban rail rail_electric rail_fast ship" speed="13.89" length="8.10" shape="1379.89,1643.64 1382.07,1644.49 1383.41,1645.44 1384.75,1646.42 1386.90,1647.37"/>
    </edge>
    <edge id=":10244005716_0" function="internal">
        <lane id=":10244005716_0_0" index="0" disallow="tram rail_urban rail rail_electric rail_fast ship" speed="13.89" length="6.36" shape="1518.66,1716.81 1520.14,1717.71 1521.36,1717.95 1522.64,1718.13 1524.25,1718.86"/>
        <lane id=":10244005716_0_1" index="1" disallow="tram rail_urban rail rail_electric rail_fast ship" speed="13.89" length="6.36" shape="1516.59,1719.25 1518.17,1720.24 1519.46,1720.53 1520.81,1720.76 1522.52,1721.55"/>
        <lane id=":10244005716_0_2" index="2" disallow="tram rail_urban rail rail_electric rail_fast ship" speed="13.89" length="6.36" shape="1516.59,1719.25 1517.91,1720.67 1518.60,1721.88 1519.33,1723.02 1520.80,1724.25"/>
    </edge>
    <edge id=":10244005717_0" function="internal">
        <lane id=":10244005717_0_0" index="0" disallow="tram rail_urban rail rail_electric rail_fast ship" speed="13.89" length="11.04" shape="1508.91,1710.66 1511.90,1712.23 1513.95,1713.31 1515.88,1714.58 1518.50,1716.68"/>
        <lane id=":10244005717_0_1" index="1" disallow="tram rail_urban rail rail_electric rail_fast ship" speed="13.89" length="11.04" shape="1507.38,1713.47 1510.20,1714.95 1512.14,1715.96 1513.96,1717.14 1516.44,1719.12"/>
    </edge>
    <edge id=":10244005745_0" function="internal">
        <lane id=":10244005745_0_0" index="0" allow="pedestrian delivery bicycle" speed="3.65" length="4.67" shape="1513.74,1652.23 1514.54,1651.03 1515.34,1650.63 1516.14,1651.04 1516.94,1652.24"/>
    </edge>
    <edge id=":10244005748_0" function="internal">
        <lane id=":10244005748_0_0" index="0" disallow="tram rail_urban rail rail_electric rail_fast ship" speed="13.89" length="7.66" shape="1520.36,1686.57 1514.04,1682.25"/>
        <lane id=":10244005748_0_1" index="1" disallow="tram rail_urban rail rail_electric rail_fast ship" speed="13.89" length="7.66" shape="1522.17,1683.93 1515.85,1679.61"/>
    </edge>
    <edge id=":10244005748_2" function="internal">
        <lane id=":10244005748_2_0" index="0" allow="pedestrian delivery bicycle" speed="9.40" length="7.55" shape="1522.17,1683.93 1520.56,1682.53 1519.87,1681.19 1519.60,1679.56 1519.24,1677.33"/>
    </edge>
    <edge id=":10255402330_0" function="internal">
        <lane id=":10255402330_0_0" index="0" disallow="tram rail_urban rail rail_electric rail_fast ship" speed="13.89" length="5.76" shape="1274.89,1960.94 1270.72,1964.92"/>
    </edge>
    <edge id=":10289782580_0" function="internal">
        <lane id=":10289782580_0_0" index="0" disallow="tram rail_urban rail rail_electric rail_fast ship" speed="13.89" length="2.19" shape="1499.60,2215.31 1500.25,2217.40"/>
    </edge>
    <edge id=":103020485#0-AddedOnRampNode_0" function="internal">
        <lane id=":103020485#0-AddedOnRampNode_0_0" index="0" disallow="tram rail_urban rail rail_electric rail_fast ship" speed="27.78" length="8.00" shape="1596.01,2372.44 1593.40,2364.88"/>
        <lane id=":103020485#0-AddedOnRampNode_0_1" index="1" disallow="tram rail_urban rail rail_electric rail_fast ship" speed="27.78" length="8.00" shape="1599.03,2371.39 1596.42,2363.83"/>
        <lane id=":103020485#0-AddedOnRampNode_0_2" index="2" disallow="tram rail_urban rail rail_electric rail_fast ship" speed="27.78" length="8.00" shape="1602.06,2370.35 1599.45,2362.79"/>
    </edge>
    <edge id=":1120037562-AddedOffRampNode_0" function="internal">
        <lane id=":1120037562-AddedOffRampNode_0_0" index="0" disallow="tram rail_urban rail rail_electric rail_fast ship" speed="13.89" length="8.27" shape="1875.41,2015.02 1877.57,2016.31 1879.45,2016.53 1881.33,2016.75 1883.48,2018.04"/>
        <lane id=":1120037562-AddedOffRampNode_0_1" index="1" disallow="tram rail_urban rail rail_electric rail_fast ship" speed="13.89" length="8.27" shape="1875.41,2015.02 1881.33,2020.41"/>
        <lane id=":1120037562-AddedOffRampNode_0_2" index="2" disallow="tram rail_urban rail rail_electric rail_fast ship" speed="13.89" length="8.27" shape="1873.26,2017.39 1879.18,2022.77"/>
    </edge>
    <edge id=":1158360093_0" function="internal">
        <lane id=":1158360093_0_0" index="0" disallow="tram rail_urban rail rail_electric rail_fast ship" speed="13.89" length="4.37" shape="1024.37,1782.15 1023.37,1781.17 1022.74,1780.45 1022.18,1779.67 1021.39,1778.52"/>
        <lane id=":1158360093_0_1" index="1" disallow="tram rail_urban rail rail_electric rail_fast ship" speed="13.89" length="4.37" shape="1026.58,1779.83 1025.73,1778.99 1025.19,1778.38 1024.71,1777.71 1024.04,1776.72"/>
    </edge>
    <edge id=":1158360112_0" function="internal">
        <lane id=":1158360112_0_0" index="0" allow="pedestrian delivery bicycle" speed="5.56" length="7.08" shape="1266.86,1561.40 1265.66,1560.62 1264.26,1560.66 1262.66,1561.50 1260.87,1563.16"/>
    </edge>
    <edge id=":1158360112_1" function="internal">
        <lane id=":1158360112_1_0" index="0" allow="pedestrian delivery bicycle" speed="5.56" length="11.01" shape="1266.86,1561.40 1264.49,1559.18 1262.48,1558.05 1260.21,1557.49 1257.13,1556.99"/>
    </edge>
    <edge id=":1158360112_2" function="internal">
        <lane id=":1158360112_2_0" index="0" allow="pedestrian delivery bicycle" speed="5.56" length="8.00" shape="1269.20,1559.22 1267.35,1556.97 1266.31,1555.06 1266.10,1553.51 1266.70,1552.30"/>
    </edge>
    <edge id=":1158360112_3" function="internal">
        <lane id=":1158360112_3_0" index="0" allow="pedestrian delivery bicycle" speed="5.56" length="12.42" shape="1268.98,1554.54 1266.45,1556.42 1263.99,1557.41 1261.40,1558.58 1258.50,1561.01"/>
    </edge>
    <edge id=":1158360112_4" function="internal">
        <lane id=":1158360112_4_0" index="0" allow="pedestrian delivery bicycle" speed="5.56" length="12.57" shape="1268.98,1554.54 1266.82,1556.14 1264.13,1557.08 1260.90,1557.36 1257.13,1556.99"/>
    </edge>
    <edge id=":1158360112_5" function="internal">
        <lane id=":1158360112_5_0" index="0" allow="pedestrian delivery bicycle" speed="3.65" length="4.67" shape="1268.98,1554.54 1267.57,1554.84 1266.72,1554.57 1266.43,1553.72 1266.70,1552.30"/>
    </edge>
    <edge id=":1158360112_6" function="internal">
        <lane id=":1158360112_6_0" index="0" allow="pedestrian delivery bicycle" speed="5.56" length="9.48" shape="1257.68,1553.84 1260.65,1554.16 1263.14,1554.01 1265.16,1553.39 1266.70,1552.30"/>
    </edge>
    <edge id=":1158360112_7" function="internal">
        <lane id=":1158360112_7_0" index="0" allow="pedestrian delivery bicycle" speed="5.56" length="9.92" shape="1257.68,1553.84 1260.12,1554.70 1261.07,1556.19 1260.53,1558.29 1258.50,1561.01"/>
    </edge>
    <edge id=":1158360112_8" function="internal">
        <lane id=":1158360112_8_0" index="0" allow="pedestrian delivery bicycle" speed="3.65" length="4.67" shape="1257.68,1553.84 1258.72,1554.83 1258.98,1555.69 1258.45,1556.41 1257.13,1556.99"/>
    </edge>
    <edge id=":1158360121_0" function="internal">
        <lane id=":1158360121_0_0" index="0" disallow="tram rail_urban rail rail_electric rail_fast ship" speed="13.89" length="9.78" shape="1243.62,1604.83 1246.46,1605.01 1248.40,1605.09 1250.34,1605.06 1253.17,1604.88"/>
        <lane id=":1158360121_0_1" index="1" disallow="tram rail_urban rail rail_electric rail_fast ship" speed="13.89" length="9.78" shape="1243.42,1608.02 1246.39,1608.21 1248.42,1608.30 1250.45,1608.26 1253.42,1608.07"/>
    </edge>
    <edge id=":1158360121_2" function="internal">
        <lane id=":1158360121_2_0" index="0" disallow="tram rail_urban rail rail_electric rail_fast ship" speed="13.89" length="8.86" shape="1243.22,1611.22 1245.85,1611.39 1247.64,1611.58 1249.41,1611.89 1251.99,1612.43"/>
    </edge>
    <edge id=":1158360121_3" function="internal">
        <lane id=":1158360121_3_0" index="0" disallow="tram rail_urban rail rail_electric rail_fast ship" speed="13.89" length="8.39" shape="1243.02,1614.41 1245.51,1614.58 1247.20,1614.76 1248.89,1615.05 1251.32,1615.56"/>
    </edge>