<?xml version="1.0" encoding="UTF-8"?>

<!-- generated on 01/28/23 18:48:21 by Eclipse SUMO duarouter Version 1.6.0
<configuration xmlns:xsi="http://www.w3.org/2001/XMLSchema-instance" xsi:noNamespaceSchemaLocation="http://sumo.dlr.de/xsd/duarouterConfiguration.xsd">

    <input>
        <net-file value="C:\Users\caodi\Sumo\2023-01-28-18-48-14\osm.net.xml"/>
        <route-files value="C:\Users\caodi\Sumo\2023-01-28-18-48-14\osm.passenger.trips.xml"/>
    </input>

    <output>
        <output-file value="C:\Users\caodi\Sumo\2023-01-28-18-48-14\osm.passenger.trips.xml.tmp"/>
        <write-trips value="true"/>
    </output>

    <time>
        <begin value="0"/>
        <end value="3600.0"/>
    </time>

    <report>
        <no-warnings value="true"/>
        <ignore-errors value="true"/>
        <no-step-log value="true"/>
    </report>

</configuration>
-->

<routes xmlns:xsi="http://www.w3.org/2001/XMLSchema-instance" xsi:noNamespaceSchemaLocation="http://sumo.dlr.de/xsd/routes_file.xsd">
    <vType id="veh_passenger" vClass="passenger"/>
    <trip id="veh0" type="veh_passenger" depart="0.00" departLane="best" departSpeed="max" from="40744449#0" to="-103020532#0"/>
    <trip id="veh1" type="veh_passenger" depart="5.14" departLane="best" from="1040467346#0" to="103020458#0"/>
    <trip id="veh2" type="veh_passenger" depart="10.27" departLane="best" from="494468279#0" to="441121937#0"/>
    <trip id="veh3" type="veh_passenger" depart="15.41" departLane="best" departSpeed="max" from="784464009" to="100126234#0"/>
    <trip id="veh4" type="veh_passenger" depart="20.54" departLane="best" from="1125136031" to="-103020562#0"/>
    <trip id="veh5" type="veh_passenger" depart="25.68" departLane="best" from="103020485#4" to="152073812#6"/>
    <trip id="veh6" type="veh_passenger" depart="30.81" departLane="best" departSpeed="max" from="-103020544#2" to="103020395#1"/>
    <trip id="veh7" type="veh_passenger" depart="35.95" departLane="best" from="40744657#0" to="152073844#2"/>
    <trip id="veh11" type="veh_passenger" depart="56.49" departLane="best" departSpeed="max" from="1120037540" to="102833832#1"/>
    <trip id="veh12" type="veh_passenger" depart="61.63" departLane="best" from="857204678" to="1097999006"/>
    <trip id="veh13" type="veh_passenger" depart="66.76" departLane="best" departSpeed="max" from="102674690#0" to="100220096"/>
    <trip id="veh14" type="veh_passenger" depart="71.90" departLane="best" from="709674358#1" to="245451408#0-AddedOffRampEdge"/>
    <trip id="veh16" type="veh_passenger" depart="82.17" departLane="best" from="152073844#4" to="857186485"/>
    <trip id="veh18" type="veh_passenger" depart="92.44" departLane="best" from="709674331#4" to="246476534#0"/>
    <trip id="veh20" type="veh_passenger" depart="102.71" departLane="best" departSpeed="max" from="492375598" to="-103020621"/>
    <trip id="veh21" type="veh_passenger" depart="107.85" departLane="best" from="103020498#2" to="103020619"/>
    <trip id="veh22" type="veh_passenger" depart="112.99" departLane="best" from="100220085" to="103020485#0-AddedOnRampEdge"/>
    <trip id="veh23" type="veh_passenger" depart="118.12" departLane="best" departSpeed="max" from="102674724#0" to="103020582"/>
    <trip id="veh24" type="veh_passenger" depart="123.26" departLane="best" departSpeed="max" from="40744449#0" to="1119856169"/>
    <trip id="veh25" type="veh_passenger" depart="128.39" departLane="best" from="1120037562" to="103020402#1"/>
    <trip id="veh27" type="veh_passenger" depart="138.66" departLane="best" from="40744657#0" to="245454546"/>
    <trip id="veh28" type="veh_passenger" depart="143.80" departLane="best" from="103020395#1" to="469977999"/>
    <trip id="veh30" type="veh_passenger" depart="154.07" departLane="best" from="210899460#0" to="441796538#0"/>
    <trip id="veh31" type="veh_passenger" depart="159.21" departLane="best" from="709674358#0" to="5020536"/>
    <trip id="veh33" type="veh_passenger" depart="169.48" departLane="best" from="769116978#0" to="1063184864"/>
    <trip id="veh34" type="veh_passenger" depart="174.61" departLane="best" from="40744657#3" to="1120037563"/>
    <trip id="veh35" type="veh_passenger" depart="179.75" departLane="best" from="817600056#1" to="124697423#4"/>
    <trip id="veh36" type="veh_passenger" depart="184.88" departLane="best" from="103020634#0" to="103020485#4"/>
    <trip id="veh38" type="veh_passenger" depart="195.16" departLane="best" from="246476534#2" to="757833657#0"/>
    <trip id="veh40" type="veh_passenger" depart="205.43" departLane="best" from="1015745220" to="-1040467343"/>
    <trip id="veh42" type="veh_passenger" depart="215.70" departLane="best" departSpeed="max" from="60682077#0" to="1120037581"/>
    <trip id="veh43" type="veh_passenger" depart="220.83" departLane="best" from="-524481549#2" to="1120037559"/>
    <trip id="veh47" type="veh_passenger" depart="241.38" departLane="best" from="454467317" to="152073839"/>
    <trip id="veh48" type="veh_passenger" depart="246.51" departLane="best" from="103020640#0" to="254006673"/>
    <trip id="veh49" type="veh_passenger" depart="251.65" departLane="best" from="102821059#2" to="1120037598"/>
    <trip id="veh50" type="veh_passenger" depart="256.78" departLane="best" departSpeed="max" from="149524453#0" to="85460158#1"/>
    <trip id="veh51" type="veh_passenger" depart="261.92" departLane="best" from="769116978#0" to="103020532#2"/>
    <trip id="veh52" type="veh_passenger" depart="267.06" departLane="best" from="152073820#0" to="103020378#1"/>
    <trip id="veh53" type="veh_passenger" depart="272.19" departLane="best" from="817600056#0-AddedOffRampEdge" to="709674331#3"/>
    <trip id="veh54" type="veh_passenger" depart="277.33" departLane="best" departSpeed="max" from="33613703#0" to="102826326#0"/>
    <trip id="veh55" type="veh_passenger" depart="282.46" departLane="best" from="524504190" to="152073842#2"/>
    <trip id="veh56" type="veh_passenger" depart="287.60" departLane="best" from="547281953#2" to="152073828#1"/>
    <trip id="veh59" type="veh_passenger" depart="303.01" departLane="best" from="778014089" to="621378914"/>
    <trip id="veh60" type="veh_passenger" depart="308.14" departLane="best" from="1118626548#1" to="-152073821#2"/>
    <trip id="veh61" type="veh_passenger" depart="313.28" departLane="best" from="100220090" to="152073810#1"/>
    <trip id="veh62" type="veh_passenger" depart="318.41" departLane="best" from="-759774588#0" to="494468847#1"/>
    <trip id="veh64" type="veh_passenger" depart="328.68" departLane="best" from="152073812#1" to="152073844#5"/>
    <trip id="veh65" type="veh_passenger" depart="333.82" departLane="best" from="103020634#0" to="709674331#4"/>
    <trip id="veh66" type="veh_passenger" depart="338.96" departLane="best" from="116287420#1" to="103020402#2"/>
    <trip id="veh67" type="veh_passenger" depart="344.09" departLane="best" from="152073844#6" to="492477352#0"/>
    <trip id="veh68" type="veh_passenger" depart="349.23" departLane="best" departSpeed="max" from="103020475" to="1040467350"/>
    <trip id="veh69" type="veh_passenger" depart="354.36" departLane="best" from="102821089" to="103020458#1"/>
    <trip id="veh71" type="veh_passenger" depart="364.63" departLane="best" from="-759774588#2" to="254006413#0"/>
    <trip id="veh72" type="veh_passenger" depart="369.77" departLane="best" from="103020498#2" to="759774588#1"/>
    <trip id="veh73" type="veh_passenger" depart="374.91" departLane="best" from="757840166" to="-56740686#0"/>
    <trip id="veh74" type="veh_passenger" depart="380.04" departLane="best" from="103020544#1" to="40744657#1"/>
    <trip id="veh75" type="veh_passenger" depart="385.18" departLane="best" from="103020485#2" to="102821094#1"/>
    <trip id="veh76" type="veh_passenger" depart="390.31" departLane="best" from="85460158#0" to="210899457#1"/>
    <trip id="veh77" type="veh_passenger" depart="395.45" departLane="best" from="152073812#0" to="524504184"/>
    <trip id="veh79" type="veh_passenger" depart="405.72" departLane="best" departSpeed="max" from="102674690#0" to="1120037591"/>
    <trip id="veh80" type="veh_passenger" depart="410.86" departLane="best" from="116287420#1" to="149524428#1"/>
    <trip id="veh82" type="veh_passenger" depart="421.13" departLane="best" from="1120037581" to="1118626548#1"/>
    <trip id="veh83" type="veh_passenger" depart="426.26" departLane="best" from="759774588#0" to="103020485#6"/>
    <trip id="veh84" type="veh_passenger" depart="431.40" departLane="best" from="103020450#2" to="124534184#1"/>
    <trip id="veh85" type="veh_passenger" depart="436.53" departLane="best" from="1125136031" to="103020582"/>
    <trip id="veh88" type="veh_passenger" depart="451.94" departLane="best" from="210899457#0" to="-111990052#0"/>
    <trip id="veh89" type="veh_passenger" depart="457.08" departLane="best" from="991044313" to="621378914"/>
    <trip id="veh91" type="veh_passenger" depart="467.35" departLane="best" from="709674358#1" to="102833835#2"/>
    <trip id="veh92" type="veh_passenger" depart="472.48" departLane="best" from="152073812#4" to="103020402#5"/>
    <trip id="veh93" type="veh_passenger" depart="477.62" departLane="best" from="1120037581" to="-152073821#3"/>
    <trip id="veh94" type="veh_passenger" depart="482.76" departLane="best" from="1120037564" to="888170980"/>
    <trip id="veh95" type="veh_passenger" depart="487.89" departLane="best" departSpeed="max" from="149555134" to="1120037581"/>
    <trip id="veh101" type="veh_passenger" depart="518.70" departLane="best" from="103020378#2" to="85460160"/>
    <trip id="veh102" type="veh_passenger" depart="523.84" departLane="best" from="100220085" to="103020378#3"/>
    <trip id="veh103" type="veh_passenger" depart="528.98" departLane="best" from="254006413#0" to="441121937#0"/>
    <trip id="veh104" type="veh_passenger" depart="534.11" departLane="best" from="103020532#0" to="102821071#0"/>
    <trip id="veh105" type="veh_passenger" depart="539.25" departLane="best" departSpeed="max" from="784464009" to="103020485#4"/>
    <trip id="veh106" type="veh_passenger" depart="544.38" departLane="best" from="254005602#0" to="246476534#0"/>
    <trip id="veh109" type="veh_passenger" depart="559.79" departLane="best" from="103020549" to="1120037563"/>
    <trip id="veh112" type="veh_passenger" depart="575.20" departLane="best" from="-922509614#0" to="124697423#4"/>
    <trip id="veh114" type="veh_passenger" depart="585.47" departLane="best" from="103020634#0" to="832141433#1"/>
    <trip id="veh115" type="veh_passenger" depart="590.60" departLane="best" from="784464002#0" to="709674347"/>
    <trip id="veh116" type="veh_passenger" depart="595.74" departLane="best" from="1120037561#0" to="102833832#1"/>
    <trip id="veh117" type="veh_passenger" depart="600.88" departLane="best" from="709674331#4-AddedOffRampEdge" to="454467319#1"/>
    <trip id="veh118" type="veh_passenger" depart="606.01" departLane="best" from="40744657#3" to="-103020358"/>
    <trip id="veh119" type="veh_passenger" depart="611.15" departLane="best" from="709674296" to="103020640#1"/>
    <trip id="veh121" type="veh_passenger" depart="621.42" departLane="best" from="102833835#1" to="102821053"/>
    <trip id="veh122" type="veh_passenger" depart="626.55" departLane="best" from="102821031#1" to="152073845"/>
    <trip id="veh123" type="veh_passenger" depart="631.69" departLane="best" from="1040467345#0" to="245452469"/>
    <trip id="veh124" type="veh_passenger" depart="636.83" departLane="best" departSpeed="max" from="492375598" to="103020395#3"/>
    <trip id="veh125" type="veh_passenger" depart="641.96" departLane="best" departSpeed="max" from="40744449#0" to="103020544#1"/>
    <trip id="veh126" type="veh_passenger" depart="647.10" departLane="best" from="152073812#5" to="759774588#1"/>
    <trip id="veh127" type="veh_passenger" depart="652.23" departLane="best" from="116287420#1" to="103020578#1"/>
    <trip id="veh128" type="veh_passenger" depart="657.37" departLane="best" departSpeed="max" from="-102821025" to="494502147#2"/>
    <trip id="veh129" type="veh_passenger" depart="662.50" departLane="best" departSpeed="max" from="40744449#0" to="103020532#0"/>
    <trip id="veh130" type="veh_passenger" depart="667.64" departLane="best" from="124534184#1" to="-103020358"/>
    <trip id="veh131" type="veh_passenger" depart="672.78" departLane="best" from="-991044313" to="709674358#0"/>
    <trip id="veh132" type="veh_passenger" depart="677.91" departLane="best" departSpeed="max" from="784464009" to="152073844#3"/>
    <trip id="veh134" type="veh_passenger" depart="688.18" departLane="best" from="103020363" to="102821089"/>
    <trip id="veh135" type="veh_passenger" depart="693.32" departLane="best" departSpeed="max" from="784464009" to="103020402#1"/>
    <trip id="veh136" type="veh_passenger" depart="698.45" departLane="best" from="103020599" to="102640409"/>
    <trip id="veh137" type="veh_passenger" depart="703.59" departLane="best" from="564217668#0" to="709674358#0"/>
    <trip id="veh138" type="veh_passenger" depart="708.73" departLane="best" from="1120037587" to="246476534#2"/>
    <trip id="veh140" type="veh_passenger" depart="719.00" departLane="best" from="759774588#2" to="857204679"/>
    <trip id="veh142" type="veh_passenger" depart="729.27" departLane="best" departSpeed="max" from="-103020544#2" to="492477352#0"/>
    <trip id="veh143" type="veh_passenger" depart="734.40" departLane="best" from="1119856165" to="832141433#0"/>
    <trip id="veh146" type="veh_passenger" depart="749.81" departLane="best" from="56752300#1" to="102821025"/>
    <trip id="veh147" type="veh_passenger" depart="754.95" departLane="best" from="759774590" to="709674296"/>
    <trip id="veh148" type="veh_passenger" depart="760.08" departLane="best" from="103020485#6" to="564217668#0"/>
    <trip id="veh149" type="veh_passenger" depart="765.22" departLane="best" from="149555151" to="1040467345#1"/>
    <trip id="veh150" type="veh_passenger" depart="770.35" departLane="best" from="636334244#0" to="103020458#2"/>
    <trip id="veh151" type="veh_passenger" depart="775.49" departLane="best" from="1119856161" to="709674306#0"/>
    <trip id="veh152" type="veh_passenger" depart="780.63" departLane="best" from="904960741" to="103020597#0"/>
    <trip id="veh153" type="veh_passenger" depart="785.76" departLane="best" departSpeed="max" from="40744449#0" to="1120037565"/>
    <trip id="veh155" type="veh_passenger" depart="796.03" departLane="best" from="85460158#1" to="102821053"/>
    <trip id="veh157" type="veh_passenger" depart="806.30" departLane="best" from="88718984" to="103020544#2"/>
    <trip id="veh158" type="veh_passenger" depart="811.44" departLane="best" from="102821031#1" to="1120037598"/>
    <trip id="veh159" type="veh_passenger" depart="816.58" departLane="best" departSpeed="max" from="33613703#0" to="152073813#1"/>
    <trip id="veh161" type="veh_passenger" depart="826.85" departLane="best" from="103020609#2" to="454467320#6"/>
    <trip id="veh164" type="veh_passenger" depart="842.25" departLane="best" from="494502147#1" to="40744657#1"/>
    <trip id="veh165" type="veh_passenger" depart="847.39" departLane="best" from="1120037559" to="-524481549#2"/>
    <trip id="veh168" type="veh_passenger" depart="862.80" departLane="best" departSpeed="max" from="492375598" to="103020640#2"/>
    <trip id="veh169" type="veh_passenger" depart="867.93" departLane="best" from="1118626557#1" to="1120037570"/>
    <trip id="veh170" type="veh_passenger" depart="873.07" departLane="best" from="1120037581" to="103020634#0"/>
    <trip id="veh171" type="veh_passenger" depart="878.20" departLane="best" from="102826314" to="1120037581"/>
    <trip id="veh172" type="veh_passenger" depart="883.34" departLane="best" from="85460158#2" to="441121937#0"/>
    <trip id="veh173" type="veh_passenger" depart="888.47" departLane="best" departSpeed="max" from="784464009" to="245455797"/>
    <trip id="veh174" type="veh_passenger" depart="893.61" departLane="best" from="1095134870" to="152073844#4"/>
    <trip id="veh175" type="veh_passenger" depart="898.75" departLane="best" departSpeed="max" from="-102821025" to="103020609#2"/>
    <trip id="veh177" type="veh_passenger" depart="909.02" departLane="best" from="40744657#3" to="124697424#0"/>
    <trip id="veh179" type="veh_passenger" depart="919.29" departLane="best" from="152073812#0" to="757840166"/>
    <trip id="veh180" type="veh_passenger" depart="924.42" departLane="best" from="636334244#0" to="102833835#4"/>
    <trip id="veh181" type="veh_passenger" depart="929.56" departLane="best" from="100220088#0" to="152073818#0"/>
    <trip id="veh182" type="veh_passenger" depart="934.70" departLane="best" departSpeed="max" from="40744449#0" to="1097999006"/>
    <trip id="veh183" type="veh_passenger" depart="939.83" departLane="best" from="709674296" to="493089593#1"/>
    <trip id="veh185" type="veh_passenger" depart="950.10" departLane="best" departSpeed="max" from="103020475" to="-103020524#1"/>
    <trip id="veh186" type="veh_passenger" depart="955.24" departLane="best" departSpeed="max" from="103020578#0" to="149555150"/>
    <trip id="veh187" type="veh_passenger" depart="960.37" departLane="best" from="709674359#2" to="-60682077#0"/>
    <trip id="veh188" type="veh_passenger" depart="965.51" departLane="best" from="1120037591" to="254005602#0"/>
    <trip id="veh189" type="veh_passenger" depart="970.65" departLane="best" from="103020458#1" to="45424066#1"/>
    <trip id="veh190" type="veh_passenger" depart="975.78" departLane="best" from="436427387" to="-102821059#0"/>
    <trip id="veh191" type="veh_passenger" depart="980.92" departLane="best" from="5105324#0" to="494502147#2"/>
    <trip id="veh192" type="veh_passenger" depart="986.05" departLane="best" from="102821031#0" to="1120037587"/>
    <trip id="veh193" type="veh_passenger" depart="991.19" departLane="best" from="103020395#2" to="85460158#2"/>
    <trip id="veh195" type="veh_passenger" depart="1001.46" departLane="best" departSpeed="max" from="149555134" to="53470408#1"/>
    <trip id="veh196" type="veh_passenger" depart="1006.60" departLane="best" from="441796538#0" to="888170980"/>
    <trip id="veh197" type="veh_passenger" depart="1011.73" departLane="best" from="254006413#0" to="85460158#0"/>
    <trip id="veh198" type="veh_passenger" depart="1016.87" departLane="best" departSpeed="max" from="784464009" to="245455668"/>
    <trip id="veh199" type="veh_passenger" depart="1022.00" departLane="best" departSpeed="max" from="492375598" to="152073812#6"/>
    <trip id="veh200" type="veh_passenger" depart="1027.14" departLane="best" from="709674331#4" to="152073844#4"/>
    <trip id="veh201" type="veh_passenger" depart="1032.27" departLane="best" departSpeed="max" from="784464009" to="492867823"/>
    <trip id="veh202" type="veh_passenger" depart="1037.41" departLane="best" from="152073812#0" to="103020524#0"/>
    <trip id="veh203" type="veh_passenger" depart="1042.55" departLane="best" from="103020582" to="254006673"/>
    <trip id="veh204" type="veh_passenger" depart="1047.68" departLane="best" from="37664262#2" to="103020578#1"/>
    <trip id="veh205" type="veh_passenger" depart="1052.82" departLane="best" from="100126234#0" to="103020609#2"/>
    <trip id="veh206" type="veh_passenger" depart="1057.95" departLane="best" from="152073844#6" to="102826316#0"/>
    <trip id="veh207" type="veh_passenger" depart="1063.09" departLane="best" from="103020522" to="442616757"/>
    <trip id="veh208" type="veh_passenger" depart="1068.22" departLane="best" departSpeed="max" from="492375598" to="-152073829"/>
    <trip id="veh209" type="veh_passenger" depart="1073.36" departLane="best" from="1120037589" to="152073844#1"/>
    <trip id="veh210" type="veh_passenger" depart="1078.50" departLane="best" from="1125136031" to="759774588#1"/>
    <trip id="veh211" type="veh_passenger" depart="1083.63" departLane="best" from="246476534#0" to="45424066#1"/>
    <trip id="veh212" type="veh_passenger" depart="1088.77" departLane="best" from="757833658#0" to="494468847#1"/>
    <trip id="veh213" type="veh_passenger" depart="1093.90" departLane="best" from="1120037565" to="-102821059#1"/>
    <trip id="veh215" type="veh_passenger" depart="1104.17" departLane="best" from="709674359#2" to="85460158#1"/>
    <trip id="veh216" type="veh_passenger" depart="1109.31" departLane="best" from="1125136031" to="493061949"/>
    <trip id="veh217" type="veh_passenger" depart="1114.45" departLane="best" from="152073857" to="245451408#0-AddedOffRampEdge"/>
    <trip id="veh218" type="veh_passenger" depart="1119.58" departLane="best" from="103020485#4" to="103020440"/>
    <trip id="veh219" type="veh_passenger" depart="1124.72" departLane="best" from="1120037587" to="102833835#1"/>
    <trip id="veh220" type="veh_passenger" depart="1129.85" departLane="best" from="152073806" to="102821089"/>
    <trip id="veh221" type="veh_passenger" depart="1134.99" departLane="best" from="1120037575#1" to="152073858"/>
    <trip id="veh222" type="veh_passenger" depart="1140.12" departLane="best" departSpeed="max" from="-103020544#2" to="254006673"/>
    <trip id="veh226" type="veh_passenger" depart="1160.67" departLane="best" from="5105324#1" to="621378914"/>
    <trip id="veh227" type="veh_passenger" depart="1165.80" departLane="best" from="103020609#1" to="-857186485"/>
    <trip id="veh228" type="veh_passenger" depart="1170.94" departLane="best" from="-103020524#1" to="152073842#2"/>
    <trip id="veh229" type="veh_passenger" depart="1176.07" departLane="best" from="991044313" to="1119856127"/>
    <trip id="veh230" type="veh_passenger" depart="1181.21" departLane="best" from="40744657#0" to="524481549#1"/>
    <trip id="veh232" type="veh_passenger" depart="1191.48" departLane="best" from="85485977" to="103020395#2"/>
    <trip id="veh233" type="veh_passenger" depart="1196.62" departLane="best" from="-103020532#0" to="102826320#1"/>
    <trip id="veh234" type="veh_passenger" depart="1201.75" departLane="best" from="5020531" to="102821031#1"/>
    <trip id="veh235" type="veh_passenger" depart="1206.89" departLane="best" from="709674297" to="85485977"/>
    <trip id="veh236" type="veh_passenger" depart="1212.02" departLane="best" from="102821031#1" to="-103020532#0"/>
    <trip id="veh237" type="veh_passenger" depart="1217.16" departLane="best" from="1118626557#2" to="441121937#0"/>
    <trip id="veh238" type="veh_passenger" depart="1222.29" departLane="best" from="857204678" to="1120037563"/>
    <trip id="veh239" type="veh_passenger" depart="1227.43" departLane="best" departSpeed="max" from="492375598" to="-60682077#0"/>
    <trip id="veh241" type="veh_passenger" depart="1237.70" departLane="best" departSpeed="max" from="102674724#0" to="5020531"/>
    <trip id="veh242" type="veh_passenger" depart="1242.84" departLane="best" from="709674359#2" to="245451408#0"/>
    <trip id="veh243" type="veh_passenger" depart="1247.97" departLane="best" from="102821089" to="888170980"/>
    <trip id="veh244" type="veh_passenger" depart="1253.11" departLane="best" from="564217668#1" to="1118631038"/>
    <trip id="veh246" type="veh_passenger" depart="1263.38" departLane="best" from="152073821#4" to="1118626557#1"/>
    <trip id="veh247" type="veh_passenger" depart="1268.52" departLane="best" from="709674359#2" to="56740686#1"/>
    <trip id="veh248" type="veh_passenger" depart="1273.65" departLane="best" from="102821031#0" to="85460160"/>
    <trip id="veh249" type="veh_passenger" depart="1278.79" departLane="best" departSpeed="max" from="492375598" to="1120037598"/>
    <trip id="veh250" type="veh_passenger" depart="1283.92" departLane="best" from="493089593#1" to="85485977"/>
    <trip id="veh254" type="veh_passenger" depart="1304.47" departLane="best" from="784464002#0" to="103020485#3"/>
    <trip id="veh255" type="veh_passenger" depart="1309.60" departLane="best" departSpeed="max" from="149555162#0" to="245455668"/>
    <trip id="veh257" type="veh_passenger" depart="1319.87" departLane="best" from="709674359#2" to="103020378#2"/>
    <trip id="veh258" type="veh_passenger" depart="1325.01" departLane="best" from="103020485#1" to="53470408#1"/>
    <trip id="veh259" type="veh_passenger" depart="1330.14" departLane="best" departSpeed="max" from="1120037540" to="709674347"/>
    <trip id="veh260" type="veh_passenger" depart="1335.28" departLane="best" from="469977999" to="103020578#1"/>
    <trip id="veh261" type="veh_passenger" depart="1340.42" departLane="best" departSpeed="max" from="-103020440" to="85460154#2-AddedOnRampEdge"/>
    <trip id="veh263" type="veh_passenger" depart="1350.69" departLane="best" from="152073812#5" to="494468847#1"/>
    <trip id="veh264" type="veh_passenger" depart="1355.82" departLane="best" from="454467320#6" to="254006673"/>
    <trip id="veh265" type="veh_passenger" depart="1360.96" departLane="best" from="152073812#6" to="53470408#0"/>
    <trip id="veh266" type="veh_passenger" depart="1366.09" departLane="best" departSpeed="max" from="102674690#0" to="103020450#3"/>
    <trip id="veh267" type="veh_passenger" depart="1371.23" departLane="best" from="457400096#0" to="1040467345#1"/>
    <trip id="veh268" type="veh_passenger" depart="1376.37" departLane="best" from="246476284#1" to="149524428#1"/>
    <trip id="veh269" type="veh_passenger" depart="1381.50" departLane="best" from="152073844#1" to="1120037587"/>
    <trip id="veh271" type="veh_passenger" depart="1391.77" departLane="best" from="103020609#0" to="102821071#0"/>
    <trip id="veh272" type="veh_passenger" depart="1396.91" departLane="best" from="103020458#0" to="102821071#0"/>
    <trip id="veh273" type="veh_passenger" depart="1402.04" departLane="best" from="152073844#4" to="494468847#1"/>
    <trip id="veh276" type="veh_passenger" depart="1417.45" departLane="best" from="1063184864" to="1015745219"/>
    <trip id="veh279" type="veh_passenger" depart="1432.86" departLane="best" from="759774589#0" to="152073812#1"/>
    <trip id="veh282" type="veh_passenger" depart="1448.27" departLane="best" from="103020402#1" to="-149555134"/>
    <trip id="veh283" type="veh_passenger" depart="1453.40" departLane="best" from="85460158#2" to="149555150"/>
    <trip id="veh284" type="veh_passenger" depart="1458.54" departLane="best" from="709674306#0" to="1120037565"/>
    <trip id="veh285" type="veh_passenger" depart="1463.67" departLane="best" from="-152073821#3" to="102826319#0"/>
    <trip id="veh286" type="veh_passenger" depart="1468.81" departLane="best" from="245451408#0" to="1040467345#0"/>
    <trip id="veh288" type="veh_passenger" depart="1479.08" departLane="best" from="524504194" to="245452469"/>
    <trip id="veh289" type="veh_passenger" depart="1484.22" departLane="best" from="152073833#1" to="124697422#0"/>
    <trip id="veh292" type="veh_passenger" depart="1499.62" departLane="best" from="37664230#1" to="245455668"/>
    <trip id="veh293" type="veh_passenger" depart="1504.76" departLane="best" from="103020485#0-AddedOnRampEdge" to="103020402#2"/>
    <trip id="veh294" type="veh_passenger" depart="1509.89" departLane="best" from="441121937#1" to="102833832#1"/>
    <trip id="veh295" type="veh_passenger" depart="1515.03" departLane="best" from="254005602#0" to="103020627"/>
    <trip id="veh296" type="veh_passenger" depart="1520.17" departLane="best" from="103020522" to="454467320#3"/>
    <trip id="veh297" type="veh_passenger" depart="1525.30" departLane="best" from="469977999" to="124697423#0"/>
    <trip id="veh298" type="veh_passenger" depart="1530.44" departLane="best" from="56752300#1" to="246481118"/>
    <trip id="veh299" type="veh_passenger" depart="1535.57" departLane="best" from="441121937#1" to="832141433#1"/>
    <trip id="veh300" type="veh_passenger" depart="1540.71" departLane="best" from="120833468" to="152073844#2"/>
    <trip id="veh301" type="veh_passenger" depart="1545.84" departLane="best" from="40744657#0" to="759774589#0"/>
    <trip id="veh302" type="veh_passenger" depart="1550.98" departLane="best" from="709674331#2" to="-56740686#1"/>
    <trip id="veh303" type="veh_passenger" depart="1556.11" departLane="best" from="103020380#0" to="1040467347"/>
    <trip id="veh304" type="veh_passenger" depart="1561.25" departLane="best" from="5020536" to="210899457#1"/>
    <trip id="veh306" type="veh_passenger" depart="1571.52" departLane="best" from="85460158#2" to="152073812#4"/>
    <trip id="veh307" type="veh_passenger" depart="1576.66" departLane="best" from="152073812#7" to="-759774588#1"/>
    <trip id="veh308" type="veh_passenger" depart="1581.79" departLane="best" from="-103020609#0" to="1120037591"/>
    <trip id="veh309" type="veh_passenger" depart="1586.93" departLane="best" departSpeed="max" from="102674690#0" to="85460166"/>
    <trip id="veh310" type="veh_passenger" depart="1592.06" departLane="best" from="709674333" to="236028366"/>
    <trip id="veh311" type="veh_passenger" depart="1597.20" departLane="best" from="85485980#0" to="991044313"/>
    <trip id="veh313" type="veh_passenger" depart="1607.47" departLane="best" from="-103020609#1" to="494468847#0"/>
    <trip id="veh315" type="veh_passenger" depart="1617.74" departLane="best" from="832141433#0" to="103020378#2"/>
    <trip id="veh316" type="veh_passenger" depart="1622.88" departLane="best" from="246476534#2" to="254006673"/>
    <trip id="veh317" type="veh_passenger" depart="1628.01" departLane="best" departSpeed="max" from="1120037540" to="1095134870"/>
    <trip id="veh318" type="veh_passenger" depart="1633.15" departLane="best" from="441937724" to="709674296"/>