<?xml version="1.0" encoding="UTF-8"?>

<!-- generated on 04/10/23 20:18:23 by Eclipse SUMO netedit Version 1.6.0
<configuration xmlns:xsi="http://www.w3.org/2001/XMLSchema-instance" xsi:noNamespaceSchemaLocation="http://sumo.dlr.de/xsd/netconvertConfiguration.xsd">

    <input>
        <sumo-net-file value="C:\work\FL_channelest\TST_total\osm.net.xml"/>
    </input>

    <output>
        <output-file value="C:\work\FL_channelest\TST_total\osm.net.xml"/>
        <output.street-names value="true"/>
    </output>

    <processing>
        <geometry.min-radius.fix.railways value="false"/>
        <geometry.max-grade.fix value="false"/>
        <offset.disable-normalization value="true"/>
        <lefthand value="false"/>
    </processing>

    <junctions>
        <no-turnarounds value="true"/>
        <junctions.corner-detail value="5"/>
        <junctions.limit-turn-speed value="5.5"/>
        <rectangular-lane-cut value="false"/>
    </junctions>

    <pedestrian>
        <walkingareas value="false"/>
    </pedestrian>

    <netedit>
        <route-files value="C:\work\FL_channelest\TST_total\sumo1.rou.xml"/>
    </netedit>

    <report>
        <aggregate-warnings value="5"/>
    </report>

</configuration>
-->

<routes xmlns:xsi="http://www.w3.org/2001/XMLSchema-instance" xsi:noNamespaceSchemaLocation="http://sumo.dlr.de/xsd/routes_file.xsd">
    <route edges="5020531 636334244#0 442616757 246481118 709674358#0 709674358#1 709674359#2 441121937#0 441121937#1 1119856161" color="yellow" id="route_0"/>
    <flow id="routeFlow_0" begin="0.00" departLane="random" route="route_0" end="3600.00" number="1800"/>
</routes>
